2025-09-05 14:31:42 [INFO] | evaluating objective function for source 003
2025-09-05 14:31:43 [DEBU] | running forward simulation with 'Specfem2D'
2025-09-05 14:31:43 [DEBU] | running executable with cmd: 'mpirun -n 7 bin/xmeshfem2D'
2025-09-05 14:31:47 [DEBU] | running executable with cmd: 'mpirun -n 7 bin/xspecfem2D'
2025-09-05 14:54:15 [INFO] | FINISH FORWARD SIMULATION: 003
