2025-09-05 14:31:43 [INFO] | evaluating objective function for source 007
2025-09-05 14:31:43 [DEBU] | running forward simulation with 'Specfem2D'
2025-09-05 14:31:43 [DEBU] | running executable with cmd: 'mpirun -n 7 bin/xmeshfem2D'
2025-09-05 14:31:48 [DEBU] | running executable with cmd: 'mpirun -n 7 bin/xspecfem2D'
2025-09-05 14:54:02 [INFO] | FINISH FORWARD SIMULATION: 007
