2025-09-07 01:11:16 [INFO] | evaluating objective function for source 037
2025-09-07 01:11:16 [DEBU] | running forward simulation with 'Specfem2D'
2025-09-07 01:11:16 [DEBU] | running executable with cmd: 'mpirun -n 7 bin/xmeshfem2D'
2025-09-07 01:11:21 [DEBU] | running executable with cmd: 'mpirun -n 7 bin/xspecfem2D'
2025-09-07 01:39:19 [INFO] | FINISH FORWARD SIMULATION: 037
