2025-09-05 14:31:42 [INFO] | evaluating objective function for source 005
2025-09-05 14:31:42 [DEBU] | running forward simulation with 'Specfem2D'
2025-09-05 14:31:42 [DEBU] | running executable with cmd: 'mpirun -n 7 bin/xmeshfem2D'
2025-09-05 14:31:46 [DEBU] | running executable with cmd: 'mpirun -n 7 bin/xspecfem2D'
2025-09-05 14:52:56 [INFO] | FINISH FORWARD SIMULATION: 005
