2025-09-05 14:55:04 [WARN] | data already found in 018/traces/obs/*, skipping data preparation
2025-09-05 14:55:04 [INFO] | evaluating objective function for source 018
2025-09-05 14:55:04 [DEBU] | running forward simulation with 'Specfem2D'
2025-09-05 14:55:04 [DEBU] | running executable with cmd: 'mpirun -n 7 bin/xmeshfem2D'
2025-09-05 14:55:06 [DEBU] | running executable with cmd: 'mpirun -n 7 bin/xspecfem2D'
2025-09-05 14:55:31 [INFO] | FINISH FORWARD SIMULATION: 018
2025-09-05 14:55:31 [DEBU] | quantifying misfit with 'Default'
