2025-09-07 01:40:35 [WARN] | data already found in 016/traces/obs/*, skipping data preparation
2025-09-07 01:40:35 [INFO] | evaluating objective function for source 016
2025-09-07 01:40:35 [DEBU] | running forward simulation with 'Specfem2D'
2025-09-07 01:40:35 [DEBU] | running executable with cmd: 'mpirun -n 7 bin/xmeshfem2D'
2025-09-07 01:40:37 [DEBU] | running executable with cmd: 'mpirun -n 7 bin/xspecfem2D'
2025-09-07 01:40:49 [INFO] | FINISH FORWARD SIMULATION: 016
2025-09-07 01:40:51 [DEBU] | quantifying misfit with 'Default'
