2025-09-05 14:55:04 [WARN] | data already found in 004/traces/obs/*, skipping data preparation
2025-09-05 14:55:04 [INFO] | evaluating objective function for source 004
2025-09-05 14:55:04 [DEBU] | running forward simulation with 'Specfem2D'
2025-09-05 14:55:04 [DEBU] | running executable with cmd: 'mpirun -n 7 bin/xmeshfem2D'
2025-09-05 14:55:06 [DEBU] | running executable with cmd: 'mpirun -n 7 bin/xspecfem2D'
2025-09-05 14:55:29 [INFO] | FINISH FORWARD SIMULATION: 004
2025-09-05 14:55:30 [DEBU] | quantifying misfit with 'Default'
