2025-09-05 14:55:04 [WARN] | data already found in 059/traces/obs/*, skipping data preparation
2025-09-05 14:55:04 [INFO] | evaluating objective function for source 059
2025-09-05 14:55:04 [DEBU] | running forward simulation with 'Specfem2D'
2025-09-05 14:55:10 [DEBU] | running executable with cmd: 'mpirun -n 7 bin/xmeshfem2D'
2025-09-05 14:55:12 [DEBU] | running executable with cmd: 'mpirun -n 7 bin/xspecfem2D'
2025-09-05 14:58:15 [INFO] | FINISH FORWARD SIMULATION: 059
2025-09-05 14:58:16 [DEBU] | quantifying misfit with 'Default'
