2025-09-07 01:40:36 [WARN] | data already found in 063/traces/obs/*, skipping data preparation
2025-09-07 01:40:36 [INFO] | evaluating objective function for source 063
2025-09-07 01:40:36 [DEBU] | running forward simulation with 'Specfem2D'
2025-09-07 01:40:50 [DEBU] | running executable with cmd: 'mpirun -n 7 bin/xmeshfem2D'
2025-09-07 01:41:11 [DEBU] | running executable with cmd: 'mpirun -n 7 bin/xspecfem2D'
2025-09-07 01:49:48 [INFO] | FINISH FORWARD SIMULATION: 063
2025-09-07 01:49:49 [DEBU] | quantifying misfit with 'Default'
