2025-09-05 14:55:05 [WARN] | data already found in 073/traces/obs/*, skipping data preparation
2025-09-05 14:55:05 [INFO] | evaluating objective function for source 073
2025-09-05 14:55:05 [DEBU] | running forward simulation with 'Specfem2D'
2025-09-05 14:55:11 [DEBU] | running executable with cmd: 'mpirun -n 7 bin/xmeshfem2D'
2025-09-05 14:55:17 [DEBU] | running executable with cmd: 'mpirun -n 7 bin/xspecfem2D'
2025-09-05 15:07:19 [INFO] | FINISH FORWARD SIMULATION: 073
2025-09-05 15:07:20 [DEBU] | quantifying misfit with 'Default'
2025-09-05 15:42:02 [DEBU] | found 5000 obs and 5000 syn waveforms for given paths
2025-09-05 15:42:14 [INFO] | 5000 traces matching between `obs` and `syn`
2025-09-05 15:42:15 [INFO] | PREPROCESSING AA.S000011..PRE
2025-09-05 15:42:15 [DEBU] | AA.S000011..PRE misfit=6.469E+00
2025-09-05 15:42:15 [INFO] | PREPROCESSING AA.S000050..PRE
2025-09-05 15:42:15 [INFO] | PREPROCESSING AA.S000052..PRE
2025-09-05 15:42:15 [DEBU] | AA.S000050..PRE misfit=6.469E+00
2025-09-05 15:42:15 [INFO] | PREPROCESSING AA.S000019..PRE
2025-09-05 15:42:15 [DEBU] | AA.S000052..PRE misfit=6.469E+00
2025-09-05 15:42:15 [INFO] | PREPROCESSING AA.S000020..PRE
2025-09-05 15:42:16 [INFO] | PREPROCESSING AA.S000022..PRE
2025-09-05 15:42:16 [DEBU] | AA.S000019..PRE misfit=6.469E+00
2025-09-05 15:42:16 [DEBU] | AA.S000020..PRE misfit=6.469E+00
2025-09-05 15:42:16 [DEBU] | AA.S000022..PRE misfit=6.469E+00
2025-09-05 15:42:16 [INFO] | PREPROCESSING AA.S000016..PRE
2025-09-05 15:42:16 [INFO] | PREPROCESSING AA.S000007..PRE
2025-09-05 15:42:16 [DEBU] | AA.S000016..PRE misfit=6.469E+00
2025-09-05 15:42:16 [DEBU] | AA.S000007..PRE misfit=6.469E+00
2025-09-05 15:42:16 [INFO] | PREPROCESSING AA.S000009..PRE
2025-09-05 15:42:16 [DEBU] | AA.S000009..PRE misfit=6.469E+00
2025-09-05 15:42:16 [INFO] | PREPROCESSING AA.S000017..PRE
2025-09-05 15:42:16 [DEBU] | AA.S000017..PRE misfit=6.469E+00
2025-09-05 15:42:16 [INFO] | PREPROCESSING AA.S000029..PRE
2025-09-05 15:42:16 [INFO] | PREPROCESSING AA.S000030..PRE
2025-09-05 15:42:16 [INFO] | PREPROCESSING AA.S000031..PRE
2025-09-05 15:42:16 [INFO] | PREPROCESSING AA.S000035..PRE
2025-09-05 15:42:16 [INFO] | PREPROCESSING AA.S000034..PRE
2025-09-05 15:42:16 [DEBU] | AA.S000029..PRE misfit=6.469E+00
2025-09-05 15:42:16 [DEBU] | AA.S000035..PRE misfit=6.469E+00
2025-09-05 15:42:16 [INFO] | PREPROCESSING AA.S000032..PRE
2025-09-05 15:42:16 [DEBU] | AA.S000030..PRE misfit=6.469E+00
2025-09-05 15:42:16 [DEBU] | AA.S000034..PRE misfit=6.469E+00
2025-09-05 15:42:16 [DEBU] | AA.S000031..PRE misfit=6.469E+00
2025-09-05 15:42:16 [DEBU] | AA.S000032..PRE misfit=6.469E+00
2025-09-05 15:42:17 [INFO] | PREPROCESSING AA.S000076..PRE
2025-09-05 15:42:17 [INFO] | PREPROCESSING AA.S000038..PRE
2025-09-05 15:42:17 [DEBU] | AA.S000076..PRE misfit=6.469E+00
2025-09-05 15:42:17 [DEBU] | AA.S000038..PRE misfit=6.469E+00
2025-09-05 15:42:17 [INFO] | PREPROCESSING AA.S000047..PRE
2025-09-05 15:42:17 [INFO] | PREPROCESSING AA.S000048..PRE
2025-09-05 15:42:17 [DEBU] | AA.S000047..PRE misfit=6.469E+00
2025-09-05 15:42:17 [DEBU] | AA.S000048..PRE misfit=6.469E+00
2025-09-05 15:42:17 [INFO] | PREPROCESSING AA.S000003..PRE
2025-09-05 15:42:17 [INFO] | PREPROCESSING AA.S000001..PRE
2025-09-05 15:42:17 [INFO] | PREPROCESSING AA.S000053..PRE
2025-09-05 15:42:17 [DEBU] | AA.S000001..PRE misfit=6.469E+00
2025-09-05 15:42:17 [DEBU] | AA.S000003..PRE misfit=6.469E+00
2025-09-05 15:42:17 [INFO] | PREPROCESSING AA.S000065..PRE
2025-09-05 15:42:17 [DEBU] | AA.S000053..PRE misfit=6.469E+00
2025-09-05 15:42:17 [DEBU] | AA.S000065..PRE misfit=6.469E+00
2025-09-05 15:42:17 [INFO] | PREPROCESSING AA.S000236..PRE
2025-09-05 15:42:17 [INFO] | PREPROCESSING AA.S000012..PRE
2025-09-05 15:42:17 [INFO] | PREPROCESSING AA.S000036..PRE
2025-09-05 15:42:17 [DEBU] | AA.S000012..PRE misfit=6.469E+00
2025-09-05 15:42:17 [INFO] | PREPROCESSING AA.S000072..PRE
2025-09-05 15:42:17 [DEBU] | AA.S000236..PRE misfit=6.469E+00
2025-09-05 15:42:17 [DEBU] | AA.S000036..PRE misfit=6.469E+00
2025-09-05 15:42:17 [DEBU] | AA.S000072..PRE misfit=6.469E+00
2025-09-05 15:42:17 [INFO] | PREPROCESSING AA.S000074..PRE
2025-09-05 15:42:17 [DEBU] | AA.S000074..PRE misfit=6.469E+00
2025-09-05 15:42:17 [INFO] | PREPROCESSING AA.S000090..PRE
2025-09-05 15:42:17 [DEBU] | AA.S000090..PRE misfit=6.469E+00
2025-09-05 15:42:18 [INFO] | PREPROCESSING AA.S000010..PRE
2025-09-05 15:42:18 [DEBU] | AA.S000010..PRE misfit=6.469E+00
2025-09-05 15:42:18 [INFO] | PREPROCESSING AA.S000045..PRE
2025-09-05 15:42:18 [DEBU] | AA.S000045..PRE misfit=6.469E+00
2025-09-05 15:42:18 [INFO] | PREPROCESSING AA.S000061..PRE
2025-09-05 15:42:18 [DEBU] | AA.S000061..PRE misfit=6.469E+00
2025-09-05 15:42:34 [INFO] | PREPROCESSING AA.S000080..PRE
2025-09-05 15:42:34 [INFO] | PREPROCESSING AA.S000015..PRE
2025-09-05 15:42:34 [INFO] | PREPROCESSING AA.S000084..PRE
2025-09-05 15:42:34 [INFO] | PREPROCESSING AA.S000077..PRE
2025-09-05 15:42:34 [INFO] | PREPROCESSING AA.S000055..PRE
2025-09-05 15:42:34 [INFO] | PREPROCESSING AA.S000028..PRE
2025-09-05 15:42:34 [INFO] | PREPROCESSING AA.S000186..PRE
2025-09-05 15:42:34 [INFO] | PREPROCESSING AA.S000093..PRE
2025-09-05 15:42:34 [INFO] | PREPROCESSING AA.S000023..PRE
2025-09-05 15:42:34 [INFO] | PREPROCESSING AA.S000025..PRE
2025-09-05 15:42:34 [INFO] | PREPROCESSING AA.S000092..PRE
2025-09-05 15:42:34 [INFO] | PREPROCESSING AA.S000049..PRE
2025-09-05 15:42:34 [INFO] | PREPROCESSING AA.S000002..PRE
2025-09-05 15:42:34 [INFO] | PREPROCESSING AA.S000085..PRE
2025-09-05 15:42:34 [INFO] | PREPROCESSING AA.S000018..PRE
2025-09-05 15:42:34 [DEBU] | AA.S000080..PRE misfit=6.469E+00
2025-09-05 15:42:34 [INFO] | PREPROCESSING AA.S000024..PRE
2025-09-05 15:42:34 [INFO] | PREPROCESSING AA.S000013..PRE
2025-09-05 15:42:34 [INFO] | PREPROCESSING AA.S000091..PRE
2025-09-05 15:42:34 [INFO] | PREPROCESSING AA.S000082..PRE
2025-09-05 15:42:34 [INFO] | PREPROCESSING AA.S000103..PRE
2025-09-05 15:42:34 [INFO] | PREPROCESSING AA.S000059..PRE
2025-09-05 15:42:34 [DEBU] | AA.S000077..PRE misfit=6.469E+00
2025-09-05 15:42:34 [INFO] | PREPROCESSING AA.S000145..PRE
2025-09-05 15:42:34 [DEBU] | AA.S000015..PRE misfit=6.469E+00
2025-09-05 15:42:34 [DEBU] | AA.S000084..PRE misfit=6.469E+00
2025-09-05 15:42:34 [INFO] | PREPROCESSING AA.S000014..PRE
2025-09-05 15:42:34 [INFO] | PREPROCESSING AA.S000328..PRE
2025-09-05 15:42:34 [DEBU] | AA.S000055..PRE misfit=6.469E+00
2025-09-05 15:42:34 [INFO] | PREPROCESSING AA.S000111..PRE
2025-09-05 15:42:34 [DEBU] | AA.S000186..PRE misfit=6.469E+00
2025-09-05 15:42:34 [INFO] | PREPROCESSING AA.S000066..PRE
2025-09-05 15:42:34 [INFO] | PREPROCESSING AA.S000086..PRE
2025-09-05 15:42:34 [DEBU] | AA.S000093..PRE misfit=6.469E+00
2025-09-05 15:42:34 [INFO] | PREPROCESSING AA.S000027..PRE
2025-09-05 15:42:35 [DEBU] | AA.S000092..PRE misfit=6.469E+00
2025-09-05 15:42:35 [INFO] | PREPROCESSING AA.S000089..PRE
2025-09-05 15:42:35 [DEBU] | AA.S000028..PRE misfit=6.469E+00
2025-09-05 15:42:35 [DEBU] | AA.S000002..PRE misfit=6.469E+00
2025-09-05 15:42:35 [INFO] | PREPROCESSING AA.S000008..PRE
2025-09-05 15:42:35 [DEBU] | AA.S000091..PRE misfit=6.469E+00
2025-09-05 15:42:35 [DEBU] | AA.S000023..PRE misfit=6.469E+00
2025-09-05 15:42:35 [INFO] | PREPROCESSING AA.S000081..PRE
2025-09-05 15:42:35 [DEBU] | AA.S000103..PRE misfit=6.469E+00
2025-09-05 15:42:35 [INFO] | PREPROCESSING AA.S000336..PRE
2025-09-05 15:42:35 [DEBU] | AA.S000013..PRE misfit=6.469E+00
2025-09-05 15:42:35 [DEBU] | AA.S000024..PRE misfit=6.469E+00
2025-09-05 15:42:35 [DEBU] | AA.S000018..PRE misfit=6.469E+00
2025-09-05 15:42:35 [DEBU] | AA.S000049..PRE misfit=6.469E+00
2025-09-05 15:42:35 [DEBU] | AA.S000025..PRE misfit=6.469E+00
2025-09-05 15:42:35 [DEBU] | AA.S000085..PRE misfit=6.469E+00
2025-09-05 15:42:35 [DEBU] | AA.S000328..PRE misfit=6.469E+00
2025-09-05 15:42:35 [DEBU] | AA.S000145..PRE misfit=6.469E+00
2025-09-05 15:42:35 [DEBU] | AA.S000014..PRE misfit=6.469E+00
2025-09-05 15:42:35 [DEBU] | AA.S000082..PRE misfit=6.469E+00
2025-09-05 15:42:35 [INFO] | PREPROCESSING AA.S000195..PRE
2025-09-05 15:42:35 [DEBU] | AA.S000059..PRE misfit=6.469E+00
2025-09-05 15:42:35 [DEBU] | AA.S000111..PRE misfit=6.469E+00
2025-09-05 15:42:35 [DEBU] | AA.S000066..PRE misfit=6.469E+00
2025-09-05 15:42:35 [DEBU] | AA.S000027..PRE misfit=6.469E+00
2025-09-05 15:42:35 [DEBU] | AA.S000086..PRE misfit=6.469E+00
2025-09-05 15:42:35 [INFO] | PREPROCESSING AA.S000079..PRE
2025-09-05 15:42:35 [INFO] | PREPROCESSING AA.S000266..PRE
2025-09-05 15:42:35 [DEBU] | AA.S000008..PRE misfit=6.469E+00
2025-09-05 15:42:35 [DEBU] | AA.S000081..PRE misfit=6.469E+00
2025-09-05 15:42:35 [DEBU] | AA.S000089..PRE misfit=6.469E+00
2025-09-05 15:42:35 [INFO] | PREPROCESSING AA.S000175..PRE
2025-09-05 15:42:35 [DEBU] | AA.S000336..PRE misfit=6.469E+00
2025-09-05 15:42:35 [INFO] | PREPROCESSING AA.S000108..PRE
2025-09-05 15:42:35 [INFO] | PREPROCESSING AA.S000098..PRE
2025-09-05 15:42:35 [DEBU] | AA.S000195..PRE misfit=6.469E+00
2025-09-05 15:42:35 [DEBU] | AA.S000079..PRE misfit=6.469E+00
2025-09-05 15:42:35 [INFO] | PREPROCESSING AA.S000068..PRE
2025-09-05 15:42:35 [DEBU] | AA.S000266..PRE misfit=6.469E+00
2025-09-05 15:42:35 [INFO] | PREPROCESSING AA.S000083..PRE
2025-09-05 15:42:35 [INFO] | PREPROCESSING AA.S000220..PRE
2025-09-05 15:42:35 [DEBU] | AA.S000175..PRE misfit=6.469E+00
2025-09-05 15:42:35 [DEBU] | AA.S000108..PRE misfit=6.469E+00
2025-09-05 15:42:35 [DEBU] | AA.S000098..PRE misfit=6.469E+00
2025-09-05 15:42:35 [DEBU] | AA.S000083..PRE misfit=6.469E+00
2025-09-05 15:42:35 [DEBU] | AA.S000220..PRE misfit=6.469E+00
2025-09-05 15:42:35 [DEBU] | AA.S000068..PRE misfit=6.469E+00
2025-09-05 15:42:35 [INFO] | PREPROCESSING AA.S000215..PRE
2025-09-05 15:42:35 [DEBU] | AA.S000215..PRE misfit=6.469E+00
2025-09-05 15:42:41 [INFO] | PREPROCESSING AA.S000026..PRE
2025-09-05 15:42:42 [INFO] | PREPROCESSING AA.S000267..PRE
2025-09-05 15:42:41 [INFO] | PREPROCESSING AA.S000235..PRE
2025-09-05 15:42:42 [INFO] | PREPROCESSING AA.S000105..PRE
2025-09-05 15:42:41 [INFO] | PREPROCESSING AA.S000046..PRE
2025-09-05 15:42:41 [INFO] | PREPROCESSING AA.S000331..PRE
2025-09-05 15:42:42 [INFO] | PREPROCESSING AA.S000071..PRE
2025-09-05 15:42:41 [INFO] | PREPROCESSING AA.S000056..PRE
2025-09-05 15:42:41 [INFO] | PREPROCESSING AA.S000291..PRE
2025-09-05 15:42:41 [INFO] | PREPROCESSING AA.S000294..PRE
2025-09-05 15:42:41 [INFO] | PREPROCESSING AA.S000116..PRE
2025-09-05 15:42:41 [INFO] | PREPROCESSING AA.S000183..PRE
2025-09-05 15:42:42 [INFO] | PREPROCESSING AA.S000279..PRE
2025-09-05 15:42:42 [INFO] | PREPROCESSING AA.S000276..PRE
2025-09-05 15:42:41 [INFO] | PREPROCESSING AA.S000239..PRE
2025-09-05 15:42:42 [INFO] | PREPROCESSING AA.S000138..PRE
2025-09-05 15:42:41 [INFO] | PREPROCESSING AA.S000044..PRE
2025-09-05 15:42:41 [INFO] | PREPROCESSING AA.S000228..PRE
2025-09-05 15:42:41 [INFO] | PREPROCESSING AA.S000100..PRE
2025-09-05 15:42:41 [INFO] | PREPROCESSING AA.S000033..PRE
2025-09-05 15:42:41 [INFO] | PREPROCESSING AA.S000060..PRE
2025-09-05 15:42:41 [INFO] | PREPROCESSING AA.S000143..PRE
2025-09-05 15:42:41 [INFO] | PREPROCESSING AA.S000051..PRE
2025-09-05 15:42:41 [INFO] | PREPROCESSING AA.S000131..PRE
2025-09-05 15:42:42 [DEBU] | AA.S000267..PRE misfit=6.469E+00
2025-09-05 15:42:41 [INFO] | PREPROCESSING AA.S000200..PRE
2025-09-05 15:42:41 [INFO] | PREPROCESSING AA.S000170..PRE
2025-09-05 15:42:41 [INFO] | PREPROCESSING AA.S000298..PRE
2025-09-05 15:42:41 [INFO] | PREPROCESSING AA.S000087..PRE
2025-09-05 15:42:41 [INFO] | PREPROCESSING AA.S000097..PRE
2025-09-05 15:42:41 [INFO] | PREPROCESSING AA.S000247..PRE
2025-09-05 15:42:41 [INFO] | PREPROCESSING AA.S000262..PRE
2025-09-05 15:42:41 [INFO] | PREPROCESSING AA.S000146..PRE
2025-09-05 15:42:41 [INFO] | PREPROCESSING AA.S000039..PRE
2025-09-05 15:42:42 [DEBU] | AA.S000294..PRE misfit=6.469E+00
2025-09-05 15:42:41 [INFO] | PREPROCESSING AA.S000263..PRE
2025-09-05 15:42:42 [INFO] | PREPROCESSING AA.S000299..PRE
2025-09-05 15:42:41 [INFO] | PREPROCESSING AA.S000213..PRE
2025-09-05 15:42:41 [INFO] | PREPROCESSING AA.S000094..PRE
2025-09-05 15:42:41 [INFO] | PREPROCESSING AA.S000341..PRE
2025-09-05 15:42:41 [INFO] | PREPROCESSING AA.S000101..PRE
2025-09-05 15:42:41 [INFO] | PREPROCESSING AA.S000153..PRE
2025-09-05 15:42:42 [DEBU] | AA.S000071..PRE misfit=6.469E+00
2025-09-05 15:42:41 [INFO] | PREPROCESSING AA.S000058..PRE
2025-09-05 15:42:41 [INFO] | PREPROCESSING AA.S000134..PRE
2025-09-05 15:42:41 [INFO] | PREPROCESSING AA.S000123..PRE
2025-09-05 15:42:42 [DEBU] | AA.S000044..PRE misfit=6.469E+00
2025-09-05 15:42:41 [INFO] | PREPROCESSING AA.S000219..PRE
2025-09-05 15:42:41 [INFO] | PREPROCESSING AA.S000216..PRE
2025-09-05 15:42:41 [INFO] | PREPROCESSING AA.S000088..PRE
2025-09-05 15:42:42 [DEBU] | AA.S000239..PRE misfit=6.469E+00
2025-09-05 15:42:41 [INFO] | PREPROCESSING AA.S000154..PRE
2025-09-05 15:42:42 [DEBU] | AA.S000291..PRE misfit=6.469E+00
2025-09-05 15:42:41 [INFO] | PREPROCESSING AA.S000095..PRE
2025-09-05 15:42:42 [DEBU] | AA.S000143..PRE misfit=6.469E+00
2025-09-05 15:42:41 [INFO] | PREPROCESSING AA.S000283..PRE
2025-09-05 15:42:42 [DEBU] | AA.S000138..PRE misfit=6.469E+00
2025-09-05 15:42:41 [INFO] | PREPROCESSING AA.S000187..PRE
2025-09-05 15:42:41 [INFO] | PREPROCESSING AA.S000129..PRE
2025-09-05 15:42:41 [INFO] | PREPROCESSING AA.S000284..PRE
2025-09-05 15:42:41 [INFO] | PREPROCESSING AA.S000307..PRE
2025-09-05 15:42:41 [INFO] | PREPROCESSING AA.S000277..PRE
2025-09-05 15:42:41 [INFO] | PREPROCESSING AA.S000334..PRE
2025-09-05 15:42:41 [INFO] | PREPROCESSING AA.S000121..PRE
2025-09-05 15:42:41 [INFO] | PREPROCESSING AA.S000261..PRE
2025-09-05 15:42:41 [INFO] | PREPROCESSING AA.S000329..PRE
2025-09-05 15:42:42 [INFO] | PREPROCESSING AA.S000303..PRE
2025-09-05 15:42:41 [INFO] | PREPROCESSING AA.S000208..PRE
2025-09-05 15:42:42 [INFO] | PREPROCESSING AA.S000128..PRE
2025-09-05 15:42:41 [INFO] | PREPROCESSING AA.S000124..PRE
2025-09-05 15:42:41 [INFO] | PREPROCESSING AA.S000179..PRE
2025-09-05 15:42:41 [INFO] | PREPROCESSING AA.S000144..PRE
2025-09-05 15:42:41 [INFO] | PREPROCESSING AA.S000230..PRE
2025-09-05 15:42:41 [INFO] | PREPROCESSING AA.S000148..PRE
2025-09-05 15:42:41 [INFO] | PREPROCESSING AA.S000122..PRE
2025-09-05 15:42:42 [DEBU] | AA.S000116..PRE misfit=6.469E+00
2025-09-05 15:42:41 [INFO] | PREPROCESSING AA.S000242..PRE
2025-09-05 15:42:42 [DEBU] | AA.S000101..PRE misfit=6.469E+00
2025-09-05 15:42:41 [INFO] | PREPROCESSING AA.S000040..PRE
2025-09-05 15:42:42 [DEBU] | AA.S000276..PRE misfit=6.469E+00
2025-09-05 15:42:41 [INFO] | PREPROCESSING AA.S000021..PRE
2025-09-05 15:42:42 [DEBU] | AA.S000056..PRE misfit=6.469E+00
2025-09-05 15:42:41 [INFO] | PREPROCESSING AA.S000073..PRE
2025-09-05 15:42:41 [INFO] | PREPROCESSING AA.S000288..PRE
2025-09-05 15:42:41 [INFO] | PREPROCESSING AA.S000272..PRE
2025-09-05 15:42:41 [INFO] | PREPROCESSING AA.S000204..PRE
2025-09-05 15:42:41 [INFO] | PREPROCESSING AA.S000256..PRE
2025-09-05 15:42:42 [DEBU] | AA.S000051..PRE misfit=6.469E+00
2025-09-05 15:42:41 [INFO] | PREPROCESSING AA.S000168..PRE
2025-09-05 15:42:42 [INFO] | PREPROCESSING AA.S000379..PRE
2025-09-05 15:42:41 [INFO] | PREPROCESSING AA.S000005..PRE
2025-09-05 15:42:41 [INFO] | PREPROCESSING AA.S000273..PRE
2025-09-05 15:42:42 [DEBU] | AA.S000060..PRE misfit=6.469E+00
2025-09-05 15:42:41 [INFO] | PREPROCESSING AA.S000172..PRE
2025-09-05 15:42:41 [INFO] | PREPROCESSING AA.S000344..PRE
2025-09-05 15:42:41 [INFO] | PREPROCESSING AA.S000057..PRE
2025-09-05 15:42:42 [DEBU] | AA.S000262..PRE misfit=6.469E+00
2025-09-05 15:42:42 [DEBU] | AA.S000303..PRE misfit=6.469E+00
2025-09-05 15:42:41 [INFO] | PREPROCESSING AA.S000155..PRE
2025-09-05 15:42:42 [DEBU] | AA.S000213..PRE misfit=6.469E+00
2025-09-05 15:42:42 [DEBU] | AA.S000146..PRE misfit=6.469E+00
2025-09-05 15:42:41 [INFO] | PREPROCESSING AA.S000293..PRE
2025-09-05 15:42:42 [DEBU] | AA.S000128..PRE misfit=6.469E+00
2025-09-05 15:42:41 [INFO] | PREPROCESSING AA.S000150..PRE
2025-09-05 15:42:41 [INFO] | PREPROCESSING AA.S000135..PRE
2025-09-05 15:42:42 [DEBU] | AA.S000087..PRE misfit=6.469E+00
2025-09-05 15:42:41 [INFO] | PREPROCESSING AA.S000184..PRE
2025-09-05 15:42:41 [INFO] | PREPROCESSING AA.S000169..PRE
2025-09-05 15:42:41 [INFO] | PREPROCESSING AA.S000120..PRE
2025-09-05 15:42:42 [DEBU] | AA.S000187..PRE misfit=6.469E+00
2025-09-05 15:42:42 [INFO] | PREPROCESSING AA.S000176..PRE
2025-09-05 15:42:41 [INFO] | PREPROCESSING AA.S000339..PRE
2025-09-05 15:42:41 [INFO] | PREPROCESSING AA.S000137..PRE
2025-09-05 15:42:42 [DEBU] | AA.S000247..PRE misfit=6.469E+00
2025-09-05 15:42:41 [INFO] | PREPROCESSING AA.S000152..PRE
2025-09-05 15:42:41 [INFO] | PREPROCESSING AA.S000289..PRE
2025-09-05 15:42:41 [INFO] | PREPROCESSING AA.S000237..PRE
2025-09-05 15:42:42 [DEBU] | AA.S000170..PRE misfit=6.469E+00
2025-09-05 15:42:41 [INFO] | PREPROCESSING AA.S000119..PRE
2025-09-05 15:42:42 [DEBU] | AA.S000131..PRE misfit=6.469E+00
2025-09-05 15:42:41 [INFO] | PREPROCESSING AA.S000240..PRE
2025-09-05 15:42:42 [INFO] | PREPROCESSING AA.S000227..PRE
2025-09-05 15:42:41 [INFO] | PREPROCESSING AA.S000159..PRE
2025-09-05 15:42:41 [INFO] | PREPROCESSING AA.S000006..PRE
2025-09-05 15:42:42 [INFO] | PREPROCESSING AA.S000361..PRE
2025-09-05 15:42:42 [DEBU] | AA.S000284..PRE misfit=6.469E+00
2025-09-05 15:42:41 [INFO] | PREPROCESSING AA.S000254..PRE
2025-09-05 15:42:42 [INFO] | PREPROCESSING AA.S000132..PRE
2025-09-05 15:42:42 [DEBU] | AA.S000183..PRE misfit=6.469E+00
2025-09-05 15:42:41 [INFO] | PREPROCESSING AA.S000063..PRE
2025-09-05 15:42:42 [DEBU] | AA.S000135..PRE misfit=6.469E+00
2025-09-05 15:42:41 [INFO] | PREPROCESSING AA.S000140..PRE
2025-09-05 15:42:41 [INFO] | PREPROCESSING AA.S000340..PRE
2025-09-05 15:42:42 [DEBU] | AA.S000168..PRE misfit=6.469E+00
2025-09-05 15:42:41 [INFO] | PREPROCESSING AA.S000202..PRE
2025-09-05 15:42:41 [INFO] | PREPROCESSING AA.S000199..PRE
2025-09-05 15:42:41 [INFO] | PREPROCESSING AA.S000069..PRE
2025-09-05 15:42:42 [DEBU] | AA.S000299..PRE misfit=6.469E+00
2025-09-05 15:42:42 [DEBU] | AA.S000331..PRE misfit=6.469E+00
2025-09-05 15:42:42 [DEBU] | AA.S000123..PRE misfit=6.469E+00
2025-09-05 15:42:42 [DEBU] | AA.S000088..PRE misfit=6.469E+00
2025-09-05 15:42:42 [INFO] | PREPROCESSING AA.S000352..PRE
2025-09-05 15:42:41 [INFO] | PREPROCESSING AA.S000180..PRE
2025-09-05 15:42:42 [DEBU] | AA.S000200..PRE misfit=6.469E+00
2025-09-05 15:42:41 [INFO] | PREPROCESSING AA.S000241..PRE
2025-09-05 15:42:42 [DEBU] | AA.S000095..PRE misfit=6.469E+00
2025-09-05 15:42:42 [DEBU] | AA.S000219..PRE misfit=6.469E+00
2025-09-05 15:42:42 [DEBU] | AA.S000154..PRE misfit=6.469E+00
2025-09-05 15:42:42 [DEBU] | AA.S000227..PRE misfit=6.469E+00
2025-09-05 15:42:42 [DEBU] | AA.S000153..PRE misfit=6.469E+00
2025-09-05 15:42:41 [INFO] | PREPROCESSING AA.S000156..PRE
2025-09-05 15:42:42 [DEBU] | AA.S000155..PRE misfit=6.469E+00
2025-09-05 15:42:41 [INFO] | PREPROCESSING AA.S000185..PRE
2025-09-05 15:42:42 [INFO] | PREPROCESSING AA.S000280..PRE
2025-09-05 15:42:41 [INFO] | PREPROCESSING AA.S000232..PRE
2025-09-05 15:42:41 [INFO] | PREPROCESSING AA.S000337..PRE
2025-09-05 15:42:42 [DEBU] | AA.S000005..PRE misfit=6.469E+00
2025-09-05 15:42:42 [DEBU] | AA.S000057..PRE misfit=6.469E+00
2025-09-05 15:42:42 [DEBU] | AA.S000132..PRE misfit=6.469E+00
2025-09-05 15:42:42 [DEBU] | AA.S000298..PRE misfit=6.469E+00
2025-09-05 15:42:41 [INFO] | PREPROCESSING AA.S000312..PRE
2025-09-05 15:42:41 [INFO] | PREPROCESSING AA.S000133..PRE
2025-09-05 15:42:42 [DEBU] | AA.S000352..PRE misfit=6.469E+00
2025-09-05 15:42:42 [DEBU] | AA.S000293..PRE misfit=6.469E+00
2025-09-05 15:42:42 [DEBU] | AA.S000176..PRE misfit=6.469E+00
2025-09-05 15:42:42 [DEBU] | AA.S000026..PRE misfit=6.469E+00
2025-09-05 15:42:41 [INFO] | PREPROCESSING AA.S000181..PRE
2025-09-05 15:42:42 [DEBU] | AA.S000344..PRE misfit=6.469E+00
2025-09-05 15:42:42 [DEBU] | AA.S000289..PRE misfit=6.469E+00
2025-09-05 15:42:42 [INFO] | PREPROCESSING AA.S000160..PRE
2025-09-05 15:42:41 [INFO] | PREPROCESSING AA.S000130..PRE
2025-09-05 15:42:42 [INFO] | PREPROCESSING AA.S000324..PRE
2025-09-05 15:42:42 [DEBU] | AA.S000129..PRE misfit=6.469E+00
2025-09-05 15:42:42 [INFO] | PREPROCESSING AA.S000212..PRE
2025-09-05 15:42:41 [INFO] | PREPROCESSING AA.S000285..PRE
2025-09-05 15:42:42 [DEBU] | AA.S000152..PRE misfit=6.469E+00
2025-09-05 15:42:42 [INFO] | PREPROCESSING AA.S000321..PRE
2025-09-05 15:42:42 [DEBU] | AA.S000242..PRE misfit=6.469E+00
2025-09-05 15:42:42 [DEBU] | AA.S000046..PRE misfit=6.469E+00
2025-09-05 15:42:41 [INFO] | PREPROCESSING AA.S000222..PRE
2025-09-05 15:42:42 [DEBU] | AA.S000280..PRE misfit=6.469E+00
2025-09-05 15:42:41 [INFO] | PREPROCESSING AA.S000290..PRE
2025-09-05 15:42:41 [INFO] | PREPROCESSING AA.S000233..PRE
2025-09-05 15:42:41 [INFO] | PREPROCESSING AA.S000161..PRE
2025-09-05 15:42:41 [INFO] | PREPROCESSING AA.S000112..PRE
2025-09-05 15:42:41 [INFO] | PREPROCESSING AA.S000209..PRE
2025-09-05 15:42:41 [INFO] | PREPROCESSING AA.S000125..PRE
2025-09-05 15:42:41 [INFO] | PREPROCESSING AA.S000054..PRE
2025-09-05 15:42:41 [INFO] | PREPROCESSING AA.S000104..PRE
2025-09-05 15:42:41 [INFO] | PREPROCESSING AA.S000210..PRE
2025-09-05 15:42:41 [INFO] | PREPROCESSING AA.S000257..PRE
2025-09-05 15:42:41 [INFO] | PREPROCESSING AA.S000332..PRE
2025-09-05 15:42:41 [INFO] | PREPROCESSING AA.S000243..PRE
2025-09-05 15:42:42 [DEBU] | AA.S000256..PRE misfit=6.469E+00
2025-09-05 15:42:42 [DEBU] | AA.S000339..PRE misfit=6.469E+00
2025-09-05 15:42:42 [DEBU] | AA.S000169..PRE misfit=6.469E+00
2025-09-05 15:42:41 [INFO] | PREPROCESSING AA.S000274..PRE
2025-09-05 15:42:41 [INFO] | PREPROCESSING AA.S000264..PRE
2025-09-05 15:42:41 [INFO] | PREPROCESSING AA.S000191..PRE
2025-09-05 15:42:41 [INFO] | PREPROCESSING AA.S000075..PRE
2025-09-05 15:42:41 [INFO] | PREPROCESSING AA.S000067..PRE
2025-09-05 15:42:43 [DEBU] | AA.S000204..PRE misfit=6.469E+00
2025-09-05 15:42:43 [DEBU] | AA.S000341..PRE misfit=6.469E+00
2025-09-05 15:42:41 [INFO] | PREPROCESSING AA.S000295..PRE
2025-09-05 15:42:43 [DEBU] | AA.S000202..PRE misfit=6.469E+00
2025-09-05 15:42:43 [INFO] | PREPROCESSING AA.S000151..PRE
2025-09-05 15:42:41 [INFO] | PREPROCESSING AA.S000041..PRE
2025-09-05 15:42:43 [INFO] | PREPROCESSING AA.S000286..PRE
2025-09-05 15:42:43 [DEBU] | AA.S000181..PRE misfit=6.469E+00
2025-09-05 15:42:43 [DEBU] | AA.S000179..PRE misfit=6.469E+00
2025-09-05 15:42:43 [DEBU] | AA.S000261..PRE misfit=6.469E+00
2025-09-05 15:42:41 [INFO] | PREPROCESSING AA.S000178..PRE
2025-09-05 15:42:41 [INFO] | PREPROCESSING AA.S000306..PRE
2025-09-05 15:42:41 [INFO] | PREPROCESSING AA.S000304..PRE
2025-09-05 15:42:41 [INFO] | PREPROCESSING AA.S000214..PRE
2025-09-05 15:42:43 [DEBU] | AA.S000144..PRE misfit=6.469E+00
2025-09-05 15:42:41 [INFO] | PREPROCESSING AA.S000118..PRE
2025-09-05 15:42:41 [INFO] | PREPROCESSING AA.S000252..PRE
2025-09-05 15:42:43 [INFO] | PREPROCESSING AA.S000357..PRE
2025-09-05 15:42:43 [DEBU] | AA.S000209..PRE misfit=6.469E+00
2025-09-05 15:42:43 [DEBU] | AA.S000156..PRE misfit=6.469E+00
2025-09-05 15:42:43 [INFO] | PREPROCESSING AA.S000196..PRE
2025-09-05 15:42:43 [DEBU] | AA.S000134..PRE misfit=6.469E+00
2025-09-05 15:42:43 [DEBU] | AA.S000321..PRE misfit=6.469E+00
2025-09-05 15:42:41 [INFO] | PREPROCESSING AA.S000255..PRE
2025-09-05 15:42:43 [DEBU] | AA.S000379..PRE misfit=6.469E+00
2025-09-05 15:42:43 [DEBU] | AA.S000290..PRE misfit=6.469E+00
2025-09-05 15:42:41 [INFO] | PREPROCESSING AA.S000347..PRE
2025-09-05 15:42:41 [INFO] | PREPROCESSING AA.S000223..PRE
2025-09-05 15:42:41 [INFO] | PREPROCESSING AA.S000343..PRE
2025-09-05 15:42:43 [DEBU] | AA.S000104..PRE misfit=6.469E+00
2025-09-05 15:42:41 [INFO] | PREPROCESSING AA.S000330..PRE
2025-09-05 15:42:41 [INFO] | PREPROCESSING AA.S000198..PRE
2025-09-05 15:42:43 [DEBU] | AA.S000125..PRE misfit=6.469E+00
2025-09-05 15:42:43 [DEBU] | AA.S000233..PRE misfit=6.469E+00
2025-09-05 15:42:43 [DEBU] | AA.S000120..PRE misfit=6.469E+00
2025-09-05 15:42:41 [INFO] | PREPROCESSING AA.S000113..PRE
2025-09-05 15:42:41 [INFO] | PREPROCESSING AA.S000064..PRE
2025-09-05 15:42:43 [DEBU] | AA.S000137..PRE misfit=6.469E+00
2025-09-05 15:42:43 [INFO] | PREPROCESSING AA.S000110..PRE
2025-09-05 15:42:41 [INFO] | PREPROCESSING AA.S000107..PRE
2025-09-05 15:42:43 [DEBU] | AA.S000324..PRE misfit=6.469E+00
2025-09-05 15:42:43 [DEBU] | AA.S000184..PRE misfit=6.469E+00
2025-09-05 15:42:41 [INFO] | PREPROCESSING AA.S000037..PRE
2025-09-05 15:42:41 [INFO] | PREPROCESSING AA.S000043..PRE
2025-09-05 15:42:43 [DEBU] | AA.S000285..PRE misfit=6.469E+00
2025-09-05 15:42:43 [DEBU] | AA.S000033..PRE misfit=6.469E+00
2025-09-05 15:42:41 [INFO] | PREPROCESSING AA.S000117..PRE
2025-09-05 15:42:43 [DEBU] | AA.S000161..PRE misfit=6.469E+00
2025-09-05 15:42:41 [INFO] | PREPROCESSING AA.S000096..PRE
2025-09-05 15:42:41 [INFO] | PREPROCESSING AA.S000217..PRE
2025-09-05 15:42:41 [INFO] | PREPROCESSING AA.S000225..PRE
2025-09-05 15:42:43 [DEBU] | AA.S000235..PRE misfit=6.469E+00
2025-09-05 15:42:43 [DEBU] | AA.S000054..PRE misfit=6.469E+00
2025-09-05 15:42:43 [DEBU] | AA.S000121..PRE misfit=6.469E+00
2025-09-05 15:42:41 [INFO] | PREPROCESSING AA.S000158..PRE
2025-09-05 15:42:43 [DEBU] | AA.S000094..PRE misfit=6.469E+00
2025-09-05 15:42:43 [DEBU] | AA.S000210..PRE misfit=6.469E+00
2025-09-05 15:42:43 [DEBU] | AA.S000329..PRE misfit=6.469E+00
2025-09-05 15:42:41 [INFO] | PREPROCESSING AA.S000188..PRE
2025-09-05 15:42:43 [DEBU] | AA.S000067..PRE misfit=6.469E+00
2025-09-05 15:42:41 [INFO] | PREPROCESSING AA.S000226..PRE
2025-09-05 15:42:43 [INFO] | PREPROCESSING AA.S000221..PRE
2025-09-05 15:42:41 [INFO] | PREPROCESSING AA.S000126..PRE
2025-09-05 15:42:43 [DEBU] | AA.S000214..PRE misfit=6.469E+00
2025-09-05 15:42:43 [DEBU] | AA.S000112..PRE misfit=6.469E+00
2025-09-05 15:42:42 [INFO] | PREPROCESSING AA.S000127..PRE
2025-09-05 15:42:42 [INFO] | PREPROCESSING AA.S000182..PRE
2025-09-05 15:42:43 [DEBU] | AA.S000334..PRE misfit=6.469E+00
2025-09-05 15:42:43 [DEBU] | AA.S000208..PRE misfit=6.469E+00
2025-09-05 15:42:43 [DEBU] | AA.S000199..PRE misfit=6.469E+00
2025-09-05 15:42:42 [INFO] | PREPROCESSING AA.S000062..PRE
2025-09-05 15:42:43 [DEBU] | AA.S000228..PRE misfit=6.469E+00
2025-09-05 15:42:42 [INFO] | PREPROCESSING AA.S000114..PRE
2025-09-05 15:42:42 [INFO] | PREPROCESSING AA.S000271..PRE
2025-09-05 15:42:43 [DEBU] | AA.S000150..PRE misfit=6.469E+00
2025-09-05 15:42:43 [DEBU] | AA.S000347..PRE misfit=6.469E+00
2025-09-05 15:42:42 [INFO] | PREPROCESSING AA.S000245..PRE
2025-09-05 15:42:43 [DEBU] | AA.S000241..PRE misfit=6.469E+00
2025-09-05 15:42:43 [DEBU] | AA.S000100..PRE misfit=6.469E+00
2025-09-05 15:42:43 [DEBU] | AA.S000337..PRE misfit=6.469E+00
2025-09-05 15:42:43 [DEBU] | AA.S000185..PRE misfit=6.469E+00
2025-09-05 15:42:43 [DEBU] | AA.S000073..PRE misfit=6.469E+00
2025-09-05 15:42:43 [DEBU] | AA.S000196..PRE misfit=6.469E+00
2025-09-05 15:42:42 [INFO] | PREPROCESSING AA.S000004..PRE
2025-09-05 15:42:42 [INFO] | PREPROCESSING AA.S000278..PRE
2025-09-05 15:42:43 [INFO] | PREPROCESSING AA.S000356..PRE
2025-09-05 15:42:42 [INFO] | PREPROCESSING AA.S000246..PRE
2025-09-05 15:42:42 [INFO] | PREPROCESSING AA.S000136..PRE
2025-09-05 15:42:43 [DEBU] | AA.S000058..PRE misfit=6.469E+00
2025-09-05 15:42:43 [DEBU] | AA.S000343..PRE misfit=6.469E+00
2025-09-05 15:42:43 [DEBU] | AA.S000198..PRE misfit=6.469E+00
2025-09-05 15:42:43 [INFO] | PREPROCESSING AA.S000368..PRE
2025-09-05 15:42:43 [DEBU] | AA.S000216..PRE misfit=6.469E+00
2025-09-05 15:42:43 [DEBU] | AA.S000191..PRE misfit=6.469E+00
2025-09-05 15:42:43 [DEBU] | AA.S000133..PRE misfit=6.469E+00
2025-09-05 15:42:43 [DEBU] | AA.S000180..PRE misfit=6.469E+00
2025-09-05 15:42:43 [INFO] | PREPROCESSING AA.S000382..PRE
2025-09-05 15:42:43 [INFO] | PREPROCESSING AA.S000317..PRE
2025-09-05 15:42:43 [DEBU] | AA.S000041..PRE misfit=6.469E+00
2025-09-05 15:42:43 [DEBU] | AA.S000178..PRE misfit=6.469E+00
2025-09-05 15:42:43 [DEBU] | AA.S000097..PRE misfit=6.469E+00
2025-09-05 15:42:43 [INFO] | PREPROCESSING AA.S000190..PRE
2025-09-05 15:42:43 [DEBU] | AA.S000113..PRE misfit=6.469E+00
2025-09-05 15:42:43 [DEBU] | AA.S000107..PRE misfit=6.469E+00
2025-09-05 15:42:43 [INFO] | PREPROCESSING AA.S000275..PRE
2025-09-05 15:42:43 [INFO] | PREPROCESSING AA.S000309..PRE
2025-09-05 15:42:43 [DEBU] | AA.S000212..PRE misfit=6.469E+00
2025-09-05 15:42:43 [DEBU] | AA.S000126..PRE misfit=6.469E+00
2025-09-05 15:42:43 [DEBU] | AA.S000279..PRE misfit=6.469E+00
2025-09-05 15:42:43 [DEBU] | AA.S000021..PRE misfit=6.469E+00
2025-09-05 15:42:43 [DEBU] | AA.S000122..PRE misfit=6.469E+00
2025-09-05 15:42:43 [DEBU] | AA.S000304..PRE misfit=6.469E+00
2025-09-05 15:42:43 [DEBU] | AA.S000062..PRE misfit=6.469E+00
2025-09-05 15:42:43 [DEBU] | AA.S000286..PRE misfit=6.469E+00
2025-09-05 15:42:43 [DEBU] | AA.S000226..PRE misfit=6.469E+00
2025-09-05 15:42:43 [INFO] | PREPROCESSING AA.S000201..PRE
2025-09-05 15:42:43 [DEBU] | AA.S000040..PRE misfit=6.469E+00
2025-09-05 15:42:43 [DEBU] | AA.S000368..PRE misfit=6.469E+00
2025-09-05 15:42:43 [DEBU] | AA.S000148..PRE misfit=6.469E+00
2025-09-05 15:42:43 [DEBU] | AA.S000312..PRE misfit=6.469E+00
2025-09-05 15:42:43 [INFO] | PREPROCESSING AA.S000345..PRE
2025-09-05 15:42:43 [DEBU] | AA.S000382..PRE misfit=6.469E+00
2025-09-05 15:42:43 [DEBU] | AA.S000221..PRE misfit=6.469E+00
2025-09-05 15:42:43 [DEBU] | AA.S000271..PRE misfit=6.469E+00
2025-09-05 15:42:43 [DEBU] | AA.S000263..PRE misfit=6.469E+00
2025-09-05 15:42:43 [INFO] | PREPROCESSING AA.S000313..PRE
2025-09-05 15:42:43 [DEBU] | AA.S000275..PRE misfit=6.469E+00
2025-09-05 15:42:43 [DEBU] | AA.S000039..PRE misfit=6.469E+00
2025-09-05 15:42:43 [DEBU] | AA.S000232..PRE misfit=6.469E+00
2025-09-05 15:42:43 [DEBU] | AA.S000124..PRE misfit=6.469E+00
2025-09-05 15:42:43 [DEBU] | AA.S000245..PRE misfit=6.469E+00
2025-09-05 15:42:43 [DEBU] | AA.S000309..PRE misfit=6.469E+00
2025-09-05 15:42:43 [INFO] | PREPROCESSING AA.S000281..PRE
2025-09-05 15:42:43 [DEBU] | AA.S000252..PRE misfit=6.469E+00
2025-09-05 15:42:43 [DEBU] | AA.S000151..PRE misfit=6.469E+00
2025-09-05 15:42:43 [DEBU] | AA.S000130..PRE misfit=6.469E+00
2025-09-05 15:42:43 [DEBU] | AA.S000230..PRE misfit=6.469E+00
2025-09-05 15:42:43 [INFO] | PREPROCESSING AA.S000197..PRE
2025-09-05 15:42:43 [DEBU] | AA.S000223..PRE misfit=6.469E+00
2025-09-05 15:42:43 [DEBU] | AA.S000069..PRE misfit=6.469E+00
2025-09-05 15:42:43 [DEBU] | AA.S000356..PRE misfit=6.469E+00
2025-09-05 15:42:43 [DEBU] | AA.S000283..PRE misfit=6.469E+00
2025-09-05 15:42:43 [INFO] | PREPROCESSING AA.S000353..PRE
2025-09-05 15:42:43 [DEBU] | AA.S000201..PRE misfit=6.469E+00
2025-09-05 15:42:43 [DEBU] | AA.S000272..PRE misfit=6.469E+00
2025-09-05 15:42:43 [DEBU] | AA.S000222..PRE misfit=6.469E+00
2025-09-05 15:42:43 [DEBU] | AA.S000273..PRE misfit=6.469E+00
2025-09-05 15:42:43 [DEBU] | AA.S000160..PRE misfit=6.469E+00
2025-09-05 15:42:43 [DEBU] | AA.S000307..PRE misfit=6.469E+00
2025-09-05 15:42:43 [DEBU] | AA.S000243..PRE misfit=6.469E+00
2025-09-05 15:42:43 [INFO] | PREPROCESSING AA.S000301..PRE
2025-09-05 15:42:43 [DEBU] | AA.S000114..PRE misfit=6.469E+00
2025-09-05 15:42:43 [DEBU] | AA.S000313..PRE misfit=6.469E+00
2025-09-05 15:42:43 [INFO] | PREPROCESSING AA.S000355..PRE
2025-09-05 15:42:43 [DEBU] | AA.S000246..PRE misfit=6.469E+00
2025-09-05 15:42:43 [DEBU] | AA.S000278..PRE misfit=6.469E+00
2025-09-05 15:42:43 [DEBU] | AA.S000105..PRE misfit=6.469E+00
2025-09-05 15:42:43 [INFO] | PREPROCESSING AA.S000042..PRE
2025-09-05 15:42:43 [DEBU] | AA.S000281..PRE misfit=6.469E+00
2025-09-05 15:42:43 [DEBU] | AA.S000295..PRE misfit=6.469E+00
2025-09-05 15:42:43 [DEBU] | AA.S000264..PRE misfit=6.469E+00
2025-09-05 15:42:43 [INFO] | PREPROCESSING AA.S000142..PRE
2025-09-05 15:42:43 [DEBU] | AA.S000004..PRE misfit=6.469E+00
2025-09-05 15:42:43 [DEBU] | AA.S000172..PRE misfit=6.469E+00
2025-09-05 15:42:43 [INFO] | PREPROCESSING AA.S000311..PRE
2025-09-05 15:42:43 [INFO] | PREPROCESSING AA.S000268..PRE
2025-09-05 15:42:43 [DEBU] | AA.S000127..PRE misfit=6.469E+00
2025-09-05 15:42:43 [DEBU] | AA.S000217..PRE misfit=6.469E+00
2025-09-05 15:42:43 [DEBU] | AA.S000355..PRE misfit=6.469E+00
2025-09-05 15:42:43 [DEBU] | AA.S000136..PRE misfit=6.469E+00
2025-09-05 15:42:43 [DEBU] | AA.S000075..PRE misfit=6.469E+00
2025-09-05 15:42:43 [DEBU] | AA.S000197..PRE misfit=6.469E+00
2025-09-05 15:42:43 [DEBU] | AA.S000117..PRE misfit=6.469E+00
2025-09-05 15:42:43 [DEBU] | AA.S000064..PRE misfit=6.469E+00
2025-09-05 15:42:43 [DEBU] | AA.S000288..PRE misfit=6.469E+00
2025-09-05 15:42:43 [INFO] | PREPROCESSING AA.S000099..PRE
2025-09-05 15:42:43 [DEBU] | AA.S000277..PRE misfit=6.469E+00
2025-09-05 15:42:43 [INFO] | PREPROCESSING AA.S000141..PRE
2025-09-05 15:42:43 [DEBU] | AA.S000317..PRE misfit=6.469E+00
2025-09-05 15:42:43 [DEBU] | AA.S000182..PRE misfit=6.469E+00
2025-09-05 15:42:43 [INFO] | PREPROCESSING AA.S000362..PRE
2025-09-05 15:42:43 [DEBU] | AA.S000118..PRE misfit=6.469E+00
2025-09-05 15:42:43 [INFO] | PREPROCESSING AA.S000333..PRE
2025-09-05 15:42:43 [DEBU] | AA.S000110..PRE misfit=6.469E+00
2025-09-05 15:42:43 [DEBU] | AA.S000330..PRE misfit=6.469E+00
2025-09-05 15:42:43 [DEBU] | AA.S000306..PRE misfit=6.469E+00
2025-09-05 15:42:43 [INFO] | PREPROCESSING AA.S000224..PRE
2025-09-05 15:42:43 [DEBU] | AA.S000268..PRE misfit=6.469E+00
2025-09-05 15:42:43 [DEBU] | AA.S000301..PRE misfit=6.469E+00
2025-09-05 15:42:43 [DEBU] | AA.S000353..PRE misfit=6.469E+00
2025-09-05 15:42:43 [DEBU] | AA.S000043..PRE misfit=6.469E+00
2025-09-05 15:42:43 [DEBU] | AA.S000237..PRE misfit=6.469E+00
2025-09-05 15:42:43 [DEBU] | AA.S000255..PRE misfit=6.469E+00
2025-09-05 15:42:43 [INFO] | PREPROCESSING AA.S000375..PRE
2025-09-05 15:42:43 [INFO] | PREPROCESSING AA.S000314..PRE
2025-09-05 15:42:43 [INFO] | PREPROCESSING AA.S000308..PRE
2025-09-05 15:42:43 [DEBU] | AA.S000096..PRE misfit=6.469E+00
2025-09-05 15:42:43 [DEBU] | AA.S000140..PRE misfit=6.469E+00
2025-09-05 15:42:43 [DEBU] | AA.S000142..PRE misfit=6.469E+00
2025-09-05 15:42:43 [INFO] | PREPROCESSING AA.S000244..PRE
2025-09-05 15:42:43 [DEBU] | AA.S000042..PRE misfit=6.469E+00
2025-09-05 15:42:43 [DEBU] | AA.S000037..PRE misfit=6.469E+00
2025-09-05 15:42:43 [DEBU] | AA.S000357..PRE misfit=6.469E+00
2025-09-05 15:42:43 [INFO] | PREPROCESSING AA.S000335..PRE
2025-09-05 15:42:43 [INFO] | PREPROCESSING AA.S000173..PRE
2025-09-05 15:42:43 [INFO] | PREPROCESSING AA.S000174..PRE
2025-09-05 15:42:43 [DEBU] | AA.S000340..PRE misfit=6.469E+00
2025-09-05 15:42:43 [DEBU] | AA.S000119..PRE misfit=6.469E+00
2025-09-05 15:42:43 [DEBU] | AA.S000225..PRE misfit=6.469E+00
2025-09-05 15:42:43 [INFO] | PREPROCESSING AA.S000346..PRE
2025-09-05 15:42:43 [DEBU] | AA.S000159..PRE misfit=6.469E+00
2025-09-05 15:42:43 [DEBU] | AA.S000099..PRE misfit=6.469E+00
2025-09-05 15:42:43 [DEBU] | AA.S000006..PRE misfit=6.469E+00
2025-09-05 15:42:43 [DEBU] | AA.S000254..PRE misfit=6.469E+00
2025-09-05 15:42:43 [INFO] | PREPROCESSING AA.S000287..PRE
2025-09-05 15:42:43 [DEBU] | AA.S000158..PRE misfit=6.469E+00
2025-09-05 15:42:43 [DEBU] | AA.S000063..PRE misfit=6.469E+00
2025-09-05 15:42:43 [INFO] | PREPROCESSING AA.S000376..PRE
2025-09-05 15:42:43 [DEBU] | AA.S000361..PRE misfit=6.469E+00
2025-09-05 15:42:43 [DEBU] | AA.S000244..PRE misfit=6.469E+00
2025-09-05 15:42:43 [INFO] | PREPROCESSING AA.S000193..PRE
2025-09-05 15:42:43 [DEBU] | AA.S000308..PRE misfit=6.469E+00
2025-09-05 15:42:43 [DEBU] | AA.S000375..PRE misfit=6.469E+00
2025-09-05 15:42:43 [INFO] | PREPROCESSING AA.S000370..PRE
2025-09-05 15:42:43 [DEBU] | AA.S000335..PRE misfit=6.469E+00
2025-09-05 15:42:43 [DEBU] | AA.S000173..PRE misfit=6.469E+00
2025-09-05 15:42:43 [DEBU] | AA.S000224..PRE misfit=6.469E+00
2025-09-05 15:42:43 [DEBU] | AA.S000240..PRE misfit=6.469E+00
2025-09-05 15:42:43 [DEBU] | AA.S000346..PRE misfit=6.469E+00
2025-09-05 15:42:43 [DEBU] | AA.S000362..PRE misfit=6.469E+00
2025-09-05 15:42:43 [DEBU] | AA.S000274..PRE misfit=6.469E+00
2025-09-05 15:42:43 [INFO] | PREPROCESSING AA.S000300..PRE
2025-09-05 15:42:43 [INFO] | PREPROCESSING AA.S000384..PRE
2025-09-05 15:42:43 [DEBU] | AA.S000257..PRE misfit=6.469E+00
2025-09-05 15:42:43 [DEBU] | AA.S000332..PRE misfit=6.469E+00
2025-09-05 15:42:43 [DEBU] | AA.S000370..PRE misfit=6.469E+00
2025-09-05 15:42:43 [DEBU] | AA.S000314..PRE misfit=6.469E+00
2025-09-05 15:42:43 [DEBU] | AA.S000193..PRE misfit=6.469E+00
2025-09-05 15:42:43 [DEBU] | AA.S000333..PRE misfit=6.469E+00
2025-09-05 15:42:43 [DEBU] | AA.S000311..PRE misfit=6.469E+00
2025-09-05 15:42:43 [DEBU] | AA.S000345..PRE misfit=6.469E+00
2025-09-05 15:42:43 [DEBU] | AA.S000174..PRE misfit=6.469E+00
2025-09-05 15:42:43 [DEBU] | AA.S000376..PRE misfit=6.469E+00
2025-09-05 15:42:43 [DEBU] | AA.S000188..PRE misfit=6.469E+00
2025-09-05 15:42:43 [INFO] | PREPROCESSING AA.S000149..PRE
2025-09-05 15:42:43 [DEBU] | AA.S000287..PRE misfit=6.469E+00
2025-09-05 15:42:43 [INFO] | PREPROCESSING AA.S000251..PRE
2025-09-05 15:42:44 [DEBU] | AA.S000141..PRE misfit=6.469E+00
2025-09-05 15:42:44 [DEBU] | AA.S000190..PRE misfit=6.469E+00
2025-09-05 15:42:44 [DEBU] | AA.S000300..PRE misfit=6.469E+00
2025-09-05 15:42:44 [DEBU] | AA.S000149..PRE misfit=6.469E+00
2025-09-05 15:42:44 [INFO] | PREPROCESSING AA.S000292..PRE
2025-09-05 15:42:44 [DEBU] | AA.S000384..PRE misfit=6.469E+00
2025-09-05 15:42:44 [DEBU] | AA.S000251..PRE misfit=6.469E+00
2025-09-05 15:42:44 [INFO] | PREPROCESSING AA.S000327..PRE
2025-09-05 15:42:44 [INFO] | PREPROCESSING AA.S000377..PRE
2025-09-05 15:42:44 [DEBU] | AA.S000292..PRE misfit=6.469E+00
2025-09-05 15:42:44 [INFO] | PREPROCESSING AA.S000189..PRE
2025-09-05 15:42:44 [INFO] | PREPROCESSING AA.S000372..PRE
2025-09-05 15:42:44 [INFO] | PREPROCESSING AA.S000270..PRE
2025-09-05 15:42:44 [INFO] | PREPROCESSING AA.S000109..PRE
2025-09-05 15:42:44 [DEBU] | AA.S000327..PRE misfit=6.469E+00
2025-09-05 15:42:44 [INFO] | PREPROCESSING AA.S000166..PRE
2025-09-05 15:42:44 [DEBU] | AA.S000377..PRE misfit=6.469E+00
2025-09-05 15:42:44 [DEBU] | AA.S000270..PRE misfit=6.469E+00
2025-09-05 15:42:44 [DEBU] | AA.S000189..PRE misfit=6.469E+00
2025-09-05 15:42:44 [DEBU] | AA.S000109..PRE misfit=6.469E+00
2025-09-05 15:42:44 [INFO] | PREPROCESSING AA.S000305..PRE
2025-09-05 15:42:44 [INFO] | PREPROCESSING AA.S000360..PRE
2025-09-05 15:42:44 [INFO] | PREPROCESSING AA.S000363..PRE
2025-09-05 15:42:44 [DEBU] | AA.S000372..PRE misfit=6.469E+00
2025-09-05 15:42:44 [INFO] | PREPROCESSING AA.S000383..PRE
2025-09-05 15:42:44 [INFO] | PREPROCESSING AA.S000364..PRE
2025-09-05 15:42:44 [INFO] | PREPROCESSING AA.S000139..PRE
2025-09-05 15:42:44 [DEBU] | AA.S000166..PRE misfit=6.469E+00
2025-09-05 15:42:44 [INFO] | PREPROCESSING AA.S000248..PRE
2025-09-05 15:42:44 [INFO] | PREPROCESSING AA.S000320..PRE
2025-09-05 15:42:44 [DEBU] | AA.S000360..PRE misfit=6.469E+00
2025-09-05 15:42:44 [DEBU] | AA.S000383..PRE misfit=6.469E+00
2025-09-05 15:42:44 [DEBU] | AA.S000305..PRE misfit=6.469E+00
2025-09-05 15:42:44 [DEBU] | AA.S000364..PRE misfit=6.469E+00
2025-09-05 15:42:44 [INFO] | PREPROCESSING AA.S000229..PRE
2025-09-05 15:42:44 [DEBU] | AA.S000139..PRE misfit=6.469E+00
2025-09-05 15:42:44 [DEBU] | AA.S000363..PRE misfit=6.469E+00
2025-09-05 15:42:44 [DEBU] | AA.S000248..PRE misfit=6.469E+00
2025-09-05 15:42:44 [DEBU] | AA.S000320..PRE misfit=6.469E+00
2025-09-05 15:42:44 [INFO] | PREPROCESSING AA.S000365..PRE
2025-09-05 15:42:44 [DEBU] | AA.S000229..PRE misfit=6.469E+00
2025-09-05 15:42:44 [INFO] | PREPROCESSING AA.S000373..PRE
2025-09-05 15:42:44 [INFO] | PREPROCESSING AA.S000171..PRE
2025-09-05 15:42:44 [INFO] | PREPROCESSING AA.S000350..PRE
2025-09-05 15:42:44 [INFO] | PREPROCESSING AA.S000259..PRE
2025-09-05 15:42:44 [INFO] | PREPROCESSING AA.S000206..PRE
2025-09-05 15:42:44 [INFO] | PREPROCESSING AA.S000260..PRE
2025-09-05 15:42:44 [INFO] | PREPROCESSING AA.S000371..PRE
2025-09-05 15:42:44 [DEBU] | AA.S000373..PRE misfit=6.469E+00
2025-09-05 15:42:44 [INFO] | PREPROCESSING AA.S000316..PRE
2025-09-05 15:42:44 [DEBU] | AA.S000171..PRE misfit=6.469E+00
2025-09-05 15:42:44 [INFO] | PREPROCESSING AA.S000167..PRE
2025-09-05 15:42:44 [DEBU] | AA.S000365..PRE misfit=6.469E+00
2025-09-05 15:42:44 [INFO] | PREPROCESSING AA.S000253..PRE
2025-09-05 15:42:44 [DEBU] | AA.S000259..PRE misfit=6.469E+00
2025-09-05 15:42:44 [DEBU] | AA.S000206..PRE misfit=6.469E+00
2025-09-05 15:42:44 [INFO] | PREPROCESSING AA.S000326..PRE
2025-09-05 15:42:44 [DEBU] | AA.S000371..PRE misfit=6.469E+00
2025-09-05 15:42:44 [DEBU] | AA.S000260..PRE misfit=6.469E+00
2025-09-05 15:42:44 [DEBU] | AA.S000167..PRE misfit=6.469E+00
2025-09-05 15:42:44 [DEBU] | AA.S000316..PRE misfit=6.469E+00
2025-09-05 15:42:44 [DEBU] | AA.S000253..PRE misfit=6.469E+00
2025-09-05 15:42:44 [DEBU] | AA.S000326..PRE misfit=6.469E+00
2025-09-05 15:42:44 [INFO] | PREPROCESSING AA.S000366..PRE
2025-09-05 15:42:45 [INFO] | PREPROCESSING AA.S000359..PRE
2025-09-05 15:42:45 [INFO] | PREPROCESSING AA.S000249..PRE
2025-09-05 15:42:45 [DEBU] | AA.S000366..PRE misfit=6.469E+00
2025-09-05 15:42:45 [INFO] | PREPROCESSING AA.S000342..PRE
2025-09-05 15:42:45 [INFO] | PREPROCESSING AA.S000348..PRE
2025-09-05 15:42:45 [DEBU] | AA.S000350..PRE misfit=6.469E+00
2025-09-05 15:42:45 [INFO] | PREPROCESSING AA.S000207..PRE
2025-09-05 15:42:45 [INFO] | PREPROCESSING AA.S000078..PRE
2025-09-05 15:42:45 [DEBU] | AA.S000342..PRE misfit=6.469E+00
2025-09-05 15:42:45 [DEBU] | AA.S000359..PRE misfit=6.469E+00
2025-09-05 15:42:45 [INFO] | PREPROCESSING AA.S000265..PRE
2025-09-05 15:42:45 [INFO] | PREPROCESSING AA.S000163..PRE
2025-09-05 15:42:45 [INFO] | PREPROCESSING AA.S000165..PRE
2025-09-05 15:42:45 [INFO] | PREPROCESSING AA.S000302..PRE
2025-09-05 15:42:45 [DEBU] | AA.S000249..PRE misfit=6.469E+00
2025-09-05 15:42:45 [INFO] | PREPROCESSING AA.S000164..PRE
2025-09-05 15:42:45 [DEBU] | AA.S000265..PRE misfit=6.469E+00
2025-09-05 15:42:45 [INFO] | PREPROCESSING AA.S000358..PRE
2025-09-05 15:42:45 [DEBU] | AA.S000207..PRE misfit=6.469E+00
2025-09-05 15:42:45 [DEBU] | AA.S000348..PRE misfit=6.469E+00
2025-09-05 15:42:45 [DEBU] | AA.S000078..PRE misfit=6.469E+00
2025-09-05 15:42:45 [DEBU] | AA.S000165..PRE misfit=6.469E+00
2025-09-05 15:42:45 [INFO] | PREPROCESSING AA.S000203..PRE
2025-09-05 15:42:45 [DEBU] | AA.S000164..PRE misfit=6.469E+00
2025-09-05 15:42:45 [DEBU] | AA.S000163..PRE misfit=6.469E+00
2025-09-05 15:42:45 [INFO] | PREPROCESSING AA.S000157..PRE
2025-09-05 15:42:45 [INFO] | PREPROCESSING AA.S000322..PRE
2025-09-05 15:42:45 [INFO] | PREPROCESSING AA.S000218..PRE
2025-09-05 15:42:45 [DEBU] | AA.S000358..PRE misfit=6.469E+00
2025-09-05 15:42:45 [DEBU] | AA.S000302..PRE misfit=6.469E+00
2025-09-05 15:42:45 [INFO] | PREPROCESSING AA.S000162..PRE
2025-09-05 15:42:45 [DEBU] | AA.S000203..PRE misfit=6.469E+00
2025-09-05 15:42:45 [INFO] | PREPROCESSING AA.S000354..PRE
2025-09-05 15:42:45 [DEBU] | AA.S000218..PRE misfit=6.469E+00
2025-09-05 15:42:45 [DEBU] | AA.S000157..PRE misfit=6.469E+00
2025-09-05 15:42:45 [INFO] | PREPROCESSING AA.S000147..PRE
2025-09-05 15:42:45 [DEBU] | AA.S000322..PRE misfit=6.469E+00
2025-09-05 15:42:45 [DEBU] | AA.S000162..PRE misfit=6.469E+00
2025-09-05 15:42:45 [INFO] | PREPROCESSING AA.S000115..PRE
2025-09-05 15:42:45 [INFO] | PREPROCESSING AA.S000205..PRE
2025-09-05 15:42:45 [DEBU] | AA.S000147..PRE misfit=6.469E+00
2025-09-05 15:42:45 [INFO] | PREPROCESSING AA.S000378..PRE
2025-09-05 15:42:45 [DEBU] | AA.S000354..PRE misfit=6.469E+00
2025-09-05 15:42:45 [INFO] | PREPROCESSING AA.S000238..PRE
2025-09-05 15:42:45 [DEBU] | AA.S000205..PRE misfit=6.469E+00
2025-09-05 15:42:45 [DEBU] | AA.S000115..PRE misfit=6.469E+00
2025-09-05 15:42:45 [INFO] | PREPROCESSING AA.S000194..PRE
2025-09-05 15:42:45 [DEBU] | AA.S000378..PRE misfit=6.469E+00
2025-09-05 15:42:45 [DEBU] | AA.S000238..PRE misfit=6.469E+00
2025-09-05 15:42:45 [DEBU] | AA.S000194..PRE misfit=6.469E+00
2025-09-05 15:42:45 [INFO] | PREPROCESSING AA.S000319..PRE
2025-09-05 15:42:45 [INFO] | PREPROCESSING AA.S000296..PRE
2025-09-05 15:42:45 [DEBU] | AA.S000319..PRE misfit=6.469E+00
2025-09-05 15:42:45 [INFO] | PREPROCESSING AA.S000192..PRE
2025-09-05 15:42:45 [INFO] | PREPROCESSING AA.S000351..PRE
2025-09-05 15:42:45 [INFO] | PREPROCESSING AA.S000258..PRE
2025-09-05 15:42:45 [INFO] | PREPROCESSING AA.S000374..PRE
2025-09-05 15:42:46 [INFO] | PREPROCESSING AA.S000211..PRE
2025-09-05 15:42:46 [DEBU] | AA.S000296..PRE misfit=6.469E+00
2025-09-05 15:42:46 [DEBU] | AA.S000192..PRE misfit=6.469E+00
2025-09-05 15:42:46 [INFO] | PREPROCESSING AA.S000381..PRE
2025-09-05 15:42:46 [DEBU] | AA.S000351..PRE misfit=6.469E+00
2025-09-05 15:42:46 [DEBU] | AA.S000258..PRE misfit=6.469E+00
2025-09-05 15:42:46 [DEBU] | AA.S000211..PRE misfit=6.469E+00
2025-09-05 15:42:46 [DEBU] | AA.S000374..PRE misfit=6.469E+00
2025-09-05 15:42:46 [INFO] | PREPROCESSING AA.S000269..PRE
2025-09-05 15:42:46 [INFO] | PREPROCESSING AA.S000282..PRE
2025-09-05 15:42:46 [INFO] | PREPROCESSING AA.S000325..PRE
2025-09-05 15:42:46 [INFO] | PREPROCESSING AA.S000310..PRE
2025-09-05 15:42:46 [INFO] | PREPROCESSING AA.S000315..PRE
2025-09-05 15:42:46 [INFO] | PREPROCESSING AA.S000323..PRE
2025-09-05 15:42:46 [DEBU] | AA.S000325..PRE misfit=6.469E+00
2025-09-05 15:42:46 [DEBU] | AA.S000381..PRE misfit=6.469E+00
2025-09-05 15:42:46 [INFO] | PREPROCESSING AA.S000349..PRE
2025-09-05 15:42:46 [DEBU] | AA.S000269..PRE misfit=6.469E+00
2025-09-05 15:42:46 [DEBU] | AA.S000315..PRE misfit=6.469E+00
2025-09-05 15:42:46 [DEBU] | AA.S000282..PRE misfit=6.469E+00
2025-09-05 15:42:46 [DEBU] | AA.S000323..PRE misfit=6.469E+00
2025-09-05 15:42:46 [INFO] | PREPROCESSING AA.S000318..PRE
2025-09-05 15:42:46 [INFO] | PREPROCESSING AA.S000106..PRE
2025-09-05 15:42:46 [INFO] | PREPROCESSING AA.S000380..PRE
2025-09-05 15:42:46 [INFO] | PREPROCESSING AA.S000070..PRE
2025-09-05 15:42:46 [DEBU] | AA.S000349..PRE misfit=6.469E+00
2025-09-05 15:42:46 [INFO] | PREPROCESSING AA.S000297..PRE
2025-09-05 15:42:46 [INFO] | PREPROCESSING AA.S000177..PRE
2025-09-05 15:42:46 [DEBU] | AA.S000380..PRE misfit=6.469E+00
2025-09-05 15:42:46 [DEBU] | AA.S000106..PRE misfit=6.469E+00
2025-09-05 15:42:46 [INFO] | PREPROCESSING AA.S000250..PRE
2025-09-05 15:42:46 [DEBU] | AA.S000318..PRE misfit=6.469E+00
2025-09-05 15:42:46 [INFO] | PREPROCESSING AA.S000338..PRE
2025-09-05 15:42:46 [DEBU] | AA.S000177..PRE misfit=6.469E+00
2025-09-05 15:42:46 [DEBU] | AA.S000070..PRE misfit=6.469E+00
2025-09-05 15:42:46 [DEBU] | AA.S000297..PRE misfit=6.469E+00
2025-09-05 15:42:46 [DEBU] | AA.S000338..PRE misfit=6.469E+00
2025-09-05 15:42:46 [INFO] | PREPROCESSING AA.S000234..PRE
2025-09-05 15:42:46 [DEBU] | AA.S000310..PRE misfit=6.469E+00
2025-09-05 15:42:46 [DEBU] | AA.S000250..PRE misfit=6.469E+00
2025-09-05 15:42:46 [INFO] | PREPROCESSING AA.S000102..PRE
2025-09-05 15:42:46 [INFO] | PREPROCESSING AA.S000231..PRE
2025-09-05 15:42:46 [INFO] | PREPROCESSING AA.S000367..PRE
2025-09-05 15:42:46 [DEBU] | AA.S000234..PRE misfit=6.469E+00
2025-09-05 15:42:46 [INFO] | PREPROCESSING AA.S000369..PRE
2025-09-05 15:42:46 [DEBU] | AA.S000231..PRE misfit=6.469E+00
2025-09-05 15:42:46 [DEBU] | AA.S000102..PRE misfit=6.469E+00
2025-09-05 15:42:46 [DEBU] | AA.S000367..PRE misfit=6.469E+00
2025-09-05 15:42:47 [DEBU] | AA.S000369..PRE misfit=6.469E+00
2025-09-05 15:42:51 [INFO] | PREPROCESSING AA.S000432..PRE
2025-09-05 15:42:52 [INFO] | PREPROCESSING AA.S000433..PRE
2025-09-05 15:42:52 [INFO] | PREPROCESSING AA.S000430..PRE
2025-09-05 15:42:52 [INFO] | PREPROCESSING AA.S000434..PRE
2025-09-05 15:43:00 [DEBU] | AA.S000433..PRE misfit=6.469E+00
2025-09-05 15:43:00 [DEBU] | AA.S000434..PRE misfit=6.469E+00
2025-09-05 15:43:00 [DEBU] | AA.S000430..PRE misfit=6.469E+00
2025-09-05 15:43:00 [DEBU] | AA.S000432..PRE misfit=6.469E+00
2025-09-05 15:43:01 [INFO] | PREPROCESSING AA.S000431..PRE
2025-09-05 15:43:01 [DEBU] | AA.S000431..PRE misfit=6.469E+00
2025-09-05 15:43:01 [INFO] | PREPROCESSING AA.S000392..PRE
2025-09-05 15:43:01 [DEBU] | AA.S000392..PRE misfit=6.469E+00
2025-09-05 15:43:01 [INFO] | PREPROCESSING AA.S000414..PRE
2025-09-05 15:43:01 [DEBU] | AA.S000414..PRE misfit=6.469E+00
2025-09-05 15:43:01 [INFO] | PREPROCESSING AA.S000393..PRE
2025-09-05 15:43:01 [DEBU] | AA.S000393..PRE misfit=6.469E+00
2025-09-05 15:43:01 [INFO] | PREPROCESSING AA.S000412..PRE
2025-09-05 15:43:01 [DEBU] | AA.S000412..PRE misfit=6.469E+00
2025-09-05 15:43:01 [INFO] | PREPROCESSING AA.S000429..PRE
2025-09-05 15:43:01 [DEBU] | AA.S000429..PRE misfit=6.469E+00
2025-09-05 15:43:01 [INFO] | PREPROCESSING AA.S000405..PRE
2025-09-05 15:43:01 [DEBU] | AA.S000405..PRE misfit=6.469E+00
2025-09-05 15:43:01 [INFO] | PREPROCESSING AA.S000417..PRE
2025-09-05 15:43:01 [DEBU] | AA.S000417..PRE misfit=6.469E+00
2025-09-05 15:43:01 [INFO] | PREPROCESSING AA.S000391..PRE
2025-09-05 15:43:01 [DEBU] | AA.S000391..PRE misfit=6.469E+00
2025-09-05 15:43:02 [INFO] | PREPROCESSING AA.S000415..PRE
2025-09-05 15:43:02 [DEBU] | AA.S000415..PRE misfit=6.469E+00
2025-09-05 15:43:02 [INFO] | PREPROCESSING AA.S000397..PRE
2025-09-05 15:43:02 [DEBU] | AA.S000397..PRE misfit=6.469E+00
2025-09-05 15:43:02 [INFO] | PREPROCESSING AA.S000435..PRE
2025-09-05 15:43:02 [DEBU] | AA.S000435..PRE misfit=6.469E+00
2025-09-05 15:43:22 [INFO] | PREPROCESSING AA.S000441..PRE
2025-09-05 15:43:22 [DEBU] | AA.S000441..PRE misfit=6.469E+00
2025-09-05 15:43:22 [INFO] | PREPROCESSING AA.S000494..PRE
2025-09-05 15:43:22 [DEBU] | AA.S000494..PRE misfit=6.469E+00
2025-09-05 15:43:22 [INFO] | PREPROCESSING AA.S000467..PRE
2025-09-05 15:43:22 [INFO] | PREPROCESSING AA.S000422..PRE
2025-09-05 15:43:22 [INFO] | PREPROCESSING AA.S000458..PRE
2025-09-05 15:43:22 [DEBU] | AA.S000422..PRE misfit=6.469E+00
2025-09-05 15:43:22 [DEBU] | AA.S000458..PRE misfit=6.469E+00
2025-09-05 15:43:22 [DEBU] | AA.S000467..PRE misfit=6.469E+00
2025-09-05 15:43:22 [INFO] | PREPROCESSING AA.S000538..PRE
2025-09-05 15:43:22 [INFO] | PREPROCESSING AA.S000482..PRE
2025-09-05 15:43:22 [DEBU] | AA.S000538..PRE misfit=6.469E+00
2025-09-05 15:43:22 [INFO] | PREPROCESSING AA.S000411..PRE
2025-09-05 15:43:22 [DEBU] | AA.S000482..PRE misfit=6.469E+00
2025-09-05 15:43:22 [INFO] | PREPROCESSING AA.S000599..PRE
2025-09-05 15:43:22 [DEBU] | AA.S000599..PRE misfit=6.469E+00
2025-09-05 15:43:22 [DEBU] | AA.S000411..PRE misfit=6.469E+00
2025-09-05 15:43:22 [INFO] | PREPROCESSING AA.S000493..PRE
2025-09-05 15:43:22 [DEBU] | AA.S000493..PRE misfit=6.469E+00
2025-09-05 15:43:22 [INFO] | PREPROCESSING AA.S000480..PRE
2025-09-05 15:43:22 [INFO] | PREPROCESSING AA.S000453..PRE
2025-09-05 15:43:22 [DEBU] | AA.S000480..PRE misfit=6.469E+00
2025-09-05 15:43:22 [INFO] | PREPROCESSING AA.S000597..PRE
2025-09-05 15:43:22 [DEBU] | AA.S000453..PRE misfit=6.469E+00
2025-09-05 15:43:22 [DEBU] | AA.S000597..PRE misfit=6.469E+00
2025-09-05 15:43:22 [INFO] | PREPROCESSING AA.S000500..PRE
2025-09-05 15:43:22 [DEBU] | AA.S000500..PRE misfit=6.469E+00
2025-09-05 15:43:22 [INFO] | PREPROCESSING AA.S000489..PRE
2025-09-05 15:43:22 [DEBU] | AA.S000489..PRE misfit=6.469E+00
2025-09-05 15:43:22 [INFO] | PREPROCESSING AA.S000477..PRE
2025-09-05 15:43:22 [INFO] | PREPROCESSING AA.S000505..PRE
2025-09-05 15:43:22 [DEBU] | AA.S000477..PRE misfit=6.469E+00
2025-09-05 15:43:22 [DEBU] | AA.S000505..PRE misfit=6.469E+00
2025-09-05 15:43:22 [INFO] | PREPROCESSING AA.S000517..PRE
2025-09-05 15:43:22 [DEBU] | AA.S000517..PRE misfit=6.469E+00
2025-09-05 15:43:22 [INFO] | PREPROCESSING AA.S000502..PRE
2025-09-05 15:43:22 [DEBU] | AA.S000502..PRE misfit=6.469E+00
2025-09-05 15:43:22 [INFO] | PREPROCESSING AA.S000527..PRE
2025-09-05 15:43:22 [DEBU] | AA.S000527..PRE misfit=6.469E+00
2025-09-05 15:43:23 [INFO] | PREPROCESSING AA.S000436..PRE
2025-09-05 15:43:23 [DEBU] | AA.S000436..PRE misfit=6.469E+00
2025-09-05 15:43:23 [INFO] | PREPROCESSING AA.S000531..PRE
2025-09-05 15:43:23 [DEBU] | AA.S000531..PRE misfit=6.469E+00
2025-09-05 15:43:23 [INFO] | PREPROCESSING AA.S000437..PRE
2025-09-05 15:43:23 [DEBU] | AA.S000437..PRE misfit=6.469E+00
2025-09-05 15:43:23 [INFO] | PREPROCESSING AA.S000475..PRE
2025-09-05 15:43:23 [DEBU] | AA.S000475..PRE misfit=6.469E+00
2025-09-05 15:43:23 [INFO] | PREPROCESSING AA.S000464..PRE
2025-09-05 15:43:23 [DEBU] | AA.S000464..PRE misfit=6.469E+00
2025-09-05 15:43:23 [INFO] | PREPROCESSING AA.S000594..PRE
2025-09-05 15:43:23 [INFO] | PREPROCESSING AA.S000498..PRE
2025-09-05 15:43:23 [DEBU] | AA.S000594..PRE misfit=6.469E+00
2025-09-05 15:43:23 [DEBU] | AA.S000498..PRE misfit=6.469E+00
2025-09-05 15:43:23 [INFO] | PREPROCESSING AA.S000501..PRE
2025-09-05 15:43:23 [DEBU] | AA.S000501..PRE misfit=6.469E+00
2025-09-05 15:43:23 [INFO] | PREPROCESSING AA.S000484..PRE
2025-09-05 15:43:23 [INFO] | PREPROCESSING AA.S000552..PRE
2025-09-05 15:43:23 [DEBU] | AA.S000484..PRE misfit=6.469E+00
2025-09-05 15:43:23 [DEBU] | AA.S000552..PRE misfit=6.469E+00
2025-09-05 15:43:23 [INFO] | PREPROCESSING AA.S000529..PRE
2025-09-05 15:43:23 [DEBU] | AA.S000529..PRE misfit=6.469E+00
2025-09-05 15:43:23 [INFO] | PREPROCESSING AA.S000557..PRE
2025-09-05 15:43:23 [DEBU] | AA.S000557..PRE misfit=6.469E+00
2025-09-05 15:43:23 [INFO] | PREPROCESSING AA.S000586..PRE
2025-09-05 15:43:23 [DEBU] | AA.S000586..PRE misfit=6.469E+00
2025-09-05 15:43:23 [INFO] | PREPROCESSING AA.S000523..PRE
2025-09-05 15:43:23 [DEBU] | AA.S000523..PRE misfit=6.469E+00
2025-09-05 15:43:23 [INFO] | PREPROCESSING AA.S000537..PRE
2025-09-05 15:43:23 [DEBU] | AA.S000537..PRE misfit=6.469E+00
2025-09-05 15:43:23 [INFO] | PREPROCESSING AA.S000778..PRE
2025-09-05 15:43:23 [DEBU] | AA.S000778..PRE misfit=6.469E+00
2025-09-05 15:43:23 [INFO] | PREPROCESSING AA.S000490..PRE
2025-09-05 15:43:23 [DEBU] | AA.S000490..PRE misfit=6.469E+00
2025-09-05 15:43:23 [INFO] | PREPROCESSING AA.S000769..PRE
2025-09-05 15:43:23 [DEBU] | AA.S000769..PRE misfit=6.469E+00
2025-09-05 15:43:23 [INFO] | PREPROCESSING AA.S000468..PRE
2025-09-05 15:43:23 [DEBU] | AA.S000468..PRE misfit=6.469E+00
2025-09-05 15:43:23 [INFO] | PREPROCESSING AA.S000768..PRE
2025-09-05 15:43:23 [DEBU] | AA.S000768..PRE misfit=6.469E+00
2025-09-05 15:43:23 [INFO] | PREPROCESSING AA.S000771..PRE
2025-09-05 15:43:23 [DEBU] | AA.S000771..PRE misfit=6.469E+00
2025-09-05 15:43:23 [INFO] | PREPROCESSING AA.S000570..PRE
2025-09-05 15:43:23 [DEBU] | AA.S000570..PRE misfit=6.469E+00
2025-09-05 15:43:23 [INFO] | PREPROCESSING AA.S000544..PRE
2025-09-05 15:43:23 [DEBU] | AA.S000544..PRE misfit=6.469E+00
2025-09-05 15:43:23 [INFO] | PREPROCESSING AA.S000547..PRE
2025-09-05 15:43:23 [DEBU] | AA.S000547..PRE misfit=6.469E+00
2025-09-05 15:43:23 [INFO] | PREPROCESSING AA.S000548..PRE
2025-09-05 15:43:23 [DEBU] | AA.S000548..PRE misfit=6.469E+00
2025-09-05 15:43:23 [INFO] | PREPROCESSING AA.S000559..PRE
2025-09-05 15:43:23 [DEBU] | AA.S000559..PRE misfit=6.469E+00
2025-09-05 15:43:23 [INFO] | PREPROCESSING AA.S000556..PRE
2025-09-05 15:43:23 [DEBU] | AA.S000556..PRE misfit=6.469E+00
2025-09-05 15:43:23 [INFO] | PREPROCESSING AA.S000585..PRE
2025-09-05 15:43:23 [DEBU] | AA.S000585..PRE misfit=6.469E+00
2025-09-05 15:43:23 [INFO] | PREPROCESSING AA.S000462..PRE
2025-09-05 15:43:23 [INFO] | PREPROCESSING AA.S000687..PRE
2025-09-05 15:43:23 [DEBU] | AA.S000462..PRE misfit=6.469E+00
2025-09-05 15:43:23 [DEBU] | AA.S000687..PRE misfit=6.469E+00
2025-09-05 15:43:23 [INFO] | PREPROCESSING AA.S000488..PRE
2025-09-05 15:43:23 [INFO] | PREPROCESSING AA.S000549..PRE
2025-09-05 15:43:23 [INFO] | PREPROCESSING AA.S000421..PRE
2025-09-05 15:43:23 [INFO] | PREPROCESSING AA.S000665..PRE
2025-09-05 15:43:23 [DEBU] | AA.S000549..PRE misfit=6.469E+00
2025-09-05 15:43:23 [DEBU] | AA.S000488..PRE misfit=6.469E+00
2025-09-05 15:43:23 [DEBU] | AA.S000421..PRE misfit=6.469E+00
2025-09-05 15:43:23 [DEBU] | AA.S000665..PRE misfit=6.469E+00
2025-09-05 15:43:23 [INFO] | PREPROCESSING AA.S000526..PRE
2025-09-05 15:43:23 [DEBU] | AA.S000526..PRE misfit=6.469E+00
2025-09-05 15:43:23 [INFO] | PREPROCESSING AA.S000679..PRE
2025-09-05 15:43:23 [INFO] | PREPROCESSING AA.S000605..PRE
2025-09-05 15:43:23 [INFO] | PREPROCESSING AA.S000621..PRE
2025-09-05 15:43:23 [DEBU] | AA.S000679..PRE misfit=6.469E+00
2025-09-05 15:43:23 [DEBU] | AA.S000605..PRE misfit=6.469E+00
2025-09-05 15:43:23 [DEBU] | AA.S000621..PRE misfit=6.469E+00
2025-09-05 15:43:23 [INFO] | PREPROCESSING AA.S000561..PRE
2025-09-05 15:43:23 [INFO] | PREPROCESSING AA.S000424..PRE
2025-09-05 15:43:23 [DEBU] | AA.S000424..PRE misfit=6.469E+00
2025-09-05 15:43:23 [DEBU] | AA.S000561..PRE misfit=6.469E+00
2025-09-05 15:43:23 [INFO] | PREPROCESSING AA.S000630..PRE
2025-09-05 15:43:23 [DEBU] | AA.S000630..PRE misfit=6.469E+00
2025-09-05 15:43:23 [INFO] | PREPROCESSING AA.S000584..PRE
2025-09-05 15:43:23 [DEBU] | AA.S000584..PRE misfit=6.469E+00
2025-09-05 15:43:23 [INFO] | PREPROCESSING AA.S000619..PRE
2025-09-05 15:43:23 [INFO] | PREPROCESSING AA.S000648..PRE
2025-09-05 15:43:23 [DEBU] | AA.S000648..PRE misfit=6.469E+00
2025-09-05 15:43:23 [DEBU] | AA.S000619..PRE misfit=6.469E+00
2025-09-05 15:43:23 [INFO] | PREPROCESSING AA.S000443..PRE
2025-09-05 15:43:23 [INFO] | PREPROCESSING AA.S000540..PRE
2025-09-05 15:43:23 [INFO] | PREPROCESSING AA.S000396..PRE
2025-09-05 15:43:23 [DEBU] | AA.S000443..PRE misfit=6.469E+00
2025-09-05 15:43:23 [DEBU] | AA.S000540..PRE misfit=6.469E+00
2025-09-05 15:43:23 [INFO] | PREPROCESSING AA.S000515..PRE
2025-09-05 15:43:23 [DEBU] | AA.S000396..PRE misfit=6.469E+00
2025-09-05 15:43:23 [INFO] | PREPROCESSING AA.S000481..PRE
2025-09-05 15:43:23 [INFO] | PREPROCESSING AA.S000668..PRE
2025-09-05 15:43:23 [DEBU] | AA.S000515..PRE misfit=6.469E+00
2025-09-05 15:43:23 [DEBU] | AA.S000481..PRE misfit=6.469E+00
2025-09-05 15:43:23 [DEBU] | AA.S000668..PRE misfit=6.469E+00
2025-09-05 15:43:23 [INFO] | PREPROCESSING AA.S000617..PRE
2025-09-05 15:43:23 [INFO] | PREPROCESSING AA.S000694..PRE
2025-09-05 15:43:23 [DEBU] | AA.S000617..PRE misfit=6.469E+00
2025-09-05 15:43:23 [INFO] | PREPROCESSING AA.S000524..PRE
2025-09-05 15:43:23 [INFO] | PREPROCESSING AA.S000452..PRE
2025-09-05 15:43:23 [INFO] | PREPROCESSING AA.S000691..PRE
2025-09-05 15:43:23 [DEBU] | AA.S000694..PRE misfit=6.469E+00
2025-09-05 15:43:23 [INFO] | PREPROCESSING AA.S000447..PRE
2025-09-05 15:43:23 [INFO] | PREPROCESSING AA.S000566..PRE
2025-09-05 15:43:23 [DEBU] | AA.S000524..PRE misfit=6.469E+00
2025-09-05 15:43:23 [INFO] | PREPROCESSING AA.S000620..PRE
2025-09-05 15:43:23 [DEBU] | AA.S000452..PRE misfit=6.469E+00
2025-09-05 15:43:23 [DEBU] | AA.S000691..PRE misfit=6.469E+00
2025-09-05 15:43:23 [DEBU] | AA.S000566..PRE misfit=6.469E+00
2025-09-05 15:43:23 [DEBU] | AA.S000447..PRE misfit=6.469E+00
2025-09-05 15:43:23 [DEBU] | AA.S000620..PRE misfit=6.469E+00
2025-09-05 15:43:23 [INFO] | PREPROCESSING AA.S000697..PRE
2025-09-05 15:43:23 [DEBU] | AA.S000697..PRE misfit=6.469E+00
2025-09-05 15:43:23 [INFO] | PREPROCESSING AA.S000401..PRE
2025-09-05 15:43:23 [DEBU] | AA.S000401..PRE misfit=6.469E+00
2025-09-05 15:43:23 [INFO] | PREPROCESSING AA.S000583..PRE
2025-09-05 15:43:23 [DEBU] | AA.S000583..PRE misfit=6.469E+00
2025-09-05 15:43:23 [INFO] | PREPROCESSING AA.S000474..PRE
2025-09-05 15:43:23 [DEBU] | AA.S000474..PRE misfit=6.469E+00
2025-09-05 15:43:23 [INFO] | PREPROCESSING AA.S000403..PRE
2025-09-05 15:43:23 [DEBU] | AA.S000403..PRE misfit=6.469E+00
2025-09-05 15:43:23 [INFO] | PREPROCESSING AA.S000419..PRE
2025-09-05 15:43:23 [DEBU] | AA.S000419..PRE misfit=6.469E+00
2025-09-05 15:43:23 [INFO] | PREPROCESSING AA.S000700..PRE
2025-09-05 15:43:23 [INFO] | PREPROCESSING AA.S000658..PRE
2025-09-05 15:43:23 [DEBU] | AA.S000658..PRE misfit=6.469E+00
2025-09-05 15:43:23 [DEBU] | AA.S000700..PRE misfit=6.469E+00
2025-09-05 15:43:23 [INFO] | PREPROCESSING AA.S000407..PRE
2025-09-05 15:43:23 [INFO] | PREPROCESSING AA.S000408..PRE
2025-09-05 15:43:23 [DEBU] | AA.S000407..PRE misfit=6.469E+00
2025-09-05 15:43:23 [DEBU] | AA.S000408..PRE misfit=6.469E+00
2025-09-05 15:43:23 [INFO] | PREPROCESSING AA.S000406..PRE
2025-09-05 15:43:23 [INFO] | PREPROCESSING AA.S000428..PRE
2025-09-05 15:43:23 [INFO] | PREPROCESSING AA.S000427..PRE
2025-09-05 15:43:23 [DEBU] | AA.S000406..PRE misfit=6.469E+00
2025-09-05 15:43:23 [DEBU] | AA.S000428..PRE misfit=6.469E+00
2025-09-05 15:43:23 [DEBU] | AA.S000427..PRE misfit=6.469E+00
2025-09-05 15:43:23 [INFO] | PREPROCESSING AA.S000567..PRE
2025-09-05 15:43:23 [DEBU] | AA.S000567..PRE misfit=6.469E+00
2025-09-05 15:43:23 [INFO] | PREPROCESSING AA.S000680..PRE
2025-09-05 15:43:23 [DEBU] | AA.S000680..PRE misfit=6.469E+00
2025-09-05 15:43:23 [INFO] | PREPROCESSING AA.S000459..PRE
2025-09-05 15:43:23 [INFO] | PREPROCESSING AA.S000387..PRE
2025-09-05 15:43:23 [INFO] | PREPROCESSING AA.S000395..PRE
2025-09-05 15:43:23 [DEBU] | AA.S000459..PRE misfit=6.469E+00
2025-09-05 15:43:23 [DEBU] | AA.S000387..PRE misfit=6.469E+00
2025-09-05 15:43:23 [DEBU] | AA.S000395..PRE misfit=6.469E+00
2025-09-05 15:43:23 [INFO] | PREPROCESSING AA.S000426..PRE
2025-09-05 15:43:23 [INFO] | PREPROCESSING AA.S000449..PRE
2025-09-05 15:43:23 [INFO] | PREPROCESSING AA.S000394..PRE
2025-09-05 15:43:23 [DEBU] | AA.S000449..PRE misfit=6.469E+00
2025-09-05 15:43:23 [DEBU] | AA.S000426..PRE misfit=6.469E+00
2025-09-05 15:43:23 [DEBU] | AA.S000394..PRE misfit=6.469E+00
2025-09-05 15:43:23 [INFO] | PREPROCESSING AA.S000404..PRE
2025-09-05 15:43:23 [DEBU] | AA.S000404..PRE misfit=6.469E+00
2025-09-05 15:43:23 [INFO] | PREPROCESSING AA.S000438..PRE
2025-09-05 15:43:23 [INFO] | PREPROCESSING AA.S000442..PRE
2025-09-05 15:43:23 [DEBU] | AA.S000438..PRE misfit=6.469E+00
2025-09-05 15:43:23 [DEBU] | AA.S000442..PRE misfit=6.469E+00
2025-09-05 15:43:23 [INFO] | PREPROCESSING AA.S000410..PRE
2025-09-05 15:43:23 [DEBU] | AA.S000410..PRE misfit=6.469E+00
2025-09-05 15:43:23 [INFO] | PREPROCESSING AA.S000416..PRE
2025-09-05 15:43:23 [DEBU] | AA.S000416..PRE misfit=6.469E+00
2025-09-05 15:43:23 [INFO] | PREPROCESSING AA.S000508..PRE
2025-09-05 15:43:23 [DEBU] | AA.S000508..PRE misfit=6.469E+00
2025-09-05 15:43:23 [INFO] | PREPROCESSING AA.S000767..PRE
2025-09-05 15:43:23 [DEBU] | AA.S000767..PRE misfit=6.469E+00
2025-09-05 15:43:23 [INFO] | PREPROCESSING AA.S000560..PRE
2025-09-05 15:43:23 [DEBU] | AA.S000560..PRE misfit=6.469E+00
2025-09-05 15:43:23 [INFO] | PREPROCESSING AA.S000693..PRE
2025-09-05 15:43:23 [DEBU] | AA.S000693..PRE misfit=6.469E+00
2025-09-05 15:43:24 [INFO] | PREPROCESSING AA.S000682..PRE
2025-09-05 15:43:24 [DEBU] | AA.S000682..PRE misfit=6.469E+00
2025-09-05 15:43:24 [INFO] | PREPROCESSING AA.S000483..PRE
2025-09-05 15:43:24 [DEBU] | AA.S000483..PRE misfit=6.469E+00
2025-09-05 15:43:24 [INFO] | PREPROCESSING AA.S000485..PRE
2025-09-05 15:43:24 [DEBU] | AA.S000485..PRE misfit=6.469E+00
2025-09-05 15:43:24 [INFO] | PREPROCESSING AA.S000558..PRE
2025-09-05 15:43:24 [DEBU] | AA.S000558..PRE misfit=6.469E+00
2025-09-05 15:43:24 [INFO] | PREPROCESSING AA.S000418..PRE
2025-09-05 15:43:24 [DEBU] | AA.S000418..PRE misfit=6.469E+00
2025-09-05 15:43:24 [INFO] | PREPROCESSING AA.S000496..PRE
2025-09-05 15:43:24 [DEBU] | AA.S000496..PRE misfit=6.469E+00
2025-09-05 15:43:24 [INFO] | PREPROCESSING AA.S000451..PRE
2025-09-05 15:43:24 [DEBU] | AA.S000451..PRE misfit=6.469E+00
2025-09-05 15:43:24 [INFO] | PREPROCESSING AA.S000450..PRE
2025-09-05 15:43:24 [DEBU] | AA.S000450..PRE misfit=6.469E+00
2025-09-05 15:43:24 [INFO] | PREPROCESSING AA.S000572..PRE
2025-09-05 15:43:25 [DEBU] | AA.S000572..PRE misfit=6.469E+00
2025-09-05 15:43:25 [INFO] | PREPROCESSING AA.S000509..PRE
2025-09-05 15:43:25 [DEBU] | AA.S000509..PRE misfit=6.469E+00
2025-09-05 15:43:25 [INFO] | PREPROCESSING AA.S000639..PRE
2025-09-05 15:43:25 [DEBU] | AA.S000639..PRE misfit=6.469E+00
2025-09-05 15:43:25 [INFO] | PREPROCESSING AA.S000573..PRE
2025-09-05 15:43:25 [DEBU] | AA.S000573..PRE misfit=6.469E+00
2025-09-05 15:44:04 [INFO] | PREPROCESSING AA.S000609..PRE
2025-09-05 15:44:04 [INFO] | PREPROCESSING AA.S000618..PRE
2025-09-05 15:44:04 [INFO] | PREPROCESSING AA.S000673..PRE
2025-09-05 15:44:04 [INFO] | PREPROCESSING AA.S000530..PRE
2025-09-05 15:44:04 [INFO] | PREPROCESSING AA.S000674..PRE
2025-09-05 15:44:04 [INFO] | PREPROCESSING AA.S000774..PRE
2025-09-05 15:44:04 [DEBU] | AA.S000618..PRE misfit=6.469E+00
2025-09-05 15:44:04 [DEBU] | AA.S000609..PRE misfit=6.469E+00
2025-09-05 15:44:04 [INFO] | PREPROCESSING AA.S000643..PRE
2025-09-05 15:44:04 [DEBU] | AA.S000530..PRE misfit=6.469E+00
2025-09-05 15:44:04 [INFO] | PREPROCESSING AA.S000545..PRE
2025-09-05 15:44:04 [DEBU] | AA.S000774..PRE misfit=6.469E+00
2025-09-05 15:44:04 [DEBU] | AA.S000673..PRE misfit=6.469E+00
2025-09-05 15:44:04 [DEBU] | AA.S000643..PRE misfit=6.469E+00
2025-09-05 15:44:04 [INFO] | PREPROCESSING AA.S000602..PRE
2025-09-05 15:44:04 [INFO] | PREPROCESSING AA.S000779..PRE
2025-09-05 15:44:04 [DEBU] | AA.S000545..PRE misfit=6.469E+00
2025-09-05 15:44:04 [INFO] | PREPROCESSING AA.S000632..PRE
2025-09-05 15:44:04 [DEBU] | AA.S000674..PRE misfit=6.469E+00
2025-09-05 15:44:04 [DEBU] | AA.S000779..PRE misfit=6.469E+00
2025-09-05 15:44:04 [INFO] | PREPROCESSING AA.S000696..PRE
2025-09-05 15:44:04 [INFO] | PREPROCESSING AA.S000553..PRE
2025-09-05 15:44:04 [DEBU] | AA.S000632..PRE misfit=6.469E+00
2025-09-05 15:44:04 [DEBU] | AA.S000602..PRE misfit=6.469E+00
2025-09-05 15:44:04 [INFO] | PREPROCESSING AA.S000520..PRE
2025-09-05 15:44:04 [DEBU] | AA.S000553..PRE misfit=6.469E+00
2025-09-05 15:44:04 [INFO] | PREPROCESSING AA.S000503..PRE
2025-09-05 15:44:04 [DEBU] | AA.S000520..PRE misfit=6.469E+00
2025-09-05 15:44:04 [INFO] | PREPROCESSING AA.S000460..PRE
2025-09-05 15:44:04 [INFO] | PREPROCESSING AA.S000596..PRE
2025-09-05 15:44:04 [INFO] | PREPROCESSING AA.S000582..PRE
2025-09-05 15:44:04 [INFO] | PREPROCESSING AA.S000413..PRE
2025-09-05 15:44:04 [DEBU] | AA.S000696..PRE misfit=6.469E+00
2025-09-05 15:44:04 [DEBU] | AA.S000503..PRE misfit=6.469E+00
2025-09-05 15:44:04 [INFO] | PREPROCESSING AA.S000469..PRE
2025-09-05 15:44:04 [INFO] | PREPROCESSING AA.S000562..PRE
2025-09-05 15:44:04 [INFO] | PREPROCESSING AA.S000591..PRE
2025-09-05 15:44:04 [DEBU] | AA.S000460..PRE misfit=6.469E+00
2025-09-05 15:44:04 [DEBU] | AA.S000582..PRE misfit=6.469E+00
2025-09-05 15:44:04 [INFO] | PREPROCESSING AA.S000669..PRE
2025-09-05 15:44:04 [INFO] | PREPROCESSING AA.S000457..PRE
2025-09-05 15:44:04 [INFO] | PREPROCESSING AA.S000685..PRE
2025-09-05 15:44:04 [INFO] | PREPROCESSING AA.S000555..PRE
2025-09-05 15:44:04 [DEBU] | AA.S000591..PRE misfit=6.469E+00
2025-09-05 15:44:04 [INFO] | PREPROCESSING AA.S000666..PRE
2025-09-05 15:44:04 [DEBU] | AA.S000562..PRE misfit=6.469E+00
2025-09-05 15:44:04 [INFO] | PREPROCESSING AA.S000686..PRE
2025-09-05 15:44:04 [DEBU] | AA.S000469..PRE misfit=6.469E+00
2025-09-05 15:44:04 [DEBU] | AA.S000555..PRE misfit=6.469E+00
2025-09-05 15:44:04 [DEBU] | AA.S000457..PRE misfit=6.469E+00
2025-09-05 15:44:04 [DEBU] | AA.S000666..PRE misfit=6.469E+00
2025-09-05 15:44:04 [INFO] | PREPROCESSING AA.S000670..PRE
2025-09-05 15:44:04 [DEBU] | AA.S000413..PRE misfit=6.469E+00
2025-09-05 15:44:04 [DEBU] | AA.S000596..PRE misfit=6.469E+00
2025-09-05 15:44:04 [INFO] | PREPROCESSING AA.S000701..PRE
2025-09-05 15:44:04 [INFO] | PREPROCESSING AA.S000564..PRE
2025-09-05 15:44:04 [INFO] | PREPROCESSING AA.S000535..PRE
2025-09-05 15:44:04 [DEBU] | AA.S000685..PRE misfit=6.469E+00
2025-09-05 15:44:04 [DEBU] | AA.S000669..PRE misfit=6.469E+00
2025-09-05 15:44:04 [INFO] | PREPROCESSING AA.S000623..PRE
2025-09-05 15:44:04 [INFO] | PREPROCESSING AA.S000625..PRE
2025-09-05 15:44:04 [INFO] | PREPROCESSING AA.S000569..PRE
2025-09-05 15:44:04 [DEBU] | AA.S000701..PRE misfit=6.469E+00
2025-09-05 15:44:04 [DEBU] | AA.S000564..PRE misfit=6.469E+00
2025-09-05 15:44:04 [DEBU] | AA.S000670..PRE misfit=6.469E+00
2025-09-05 15:44:04 [INFO] | PREPROCESSING AA.S000568..PRE
2025-09-05 15:44:04 [DEBU] | AA.S000623..PRE misfit=6.469E+00
2025-09-05 15:44:04 [DEBU] | AA.S000686..PRE misfit=6.469E+00
2025-09-05 15:44:04 [DEBU] | AA.S000625..PRE misfit=6.469E+00
2025-09-05 15:44:04 [DEBU] | AA.S000569..PRE misfit=6.469E+00
2025-09-05 15:44:04 [DEBU] | AA.S000568..PRE misfit=6.469E+00
2025-09-05 15:44:04 [DEBU] | AA.S000535..PRE misfit=6.469E+00
2025-09-05 15:44:04 [INFO] | PREPROCESSING AA.S000581..PRE
2025-09-05 15:44:04 [INFO] | PREPROCESSING AA.S000772..PRE
2025-09-05 15:44:04 [INFO] | PREPROCESSING AA.S000507..PRE
2025-09-05 15:44:04 [INFO] | PREPROCESSING AA.S000532..PRE
2025-09-05 15:44:04 [INFO] | PREPROCESSING AA.S000653..PRE
2025-09-05 15:44:04 [DEBU] | AA.S000581..PRE misfit=6.469E+00
2025-09-05 15:44:04 [INFO] | PREPROCESSING AA.S000675..PRE
2025-09-05 15:44:04 [DEBU] | AA.S000772..PRE misfit=6.469E+00
2025-09-05 15:44:04 [DEBU] | AA.S000507..PRE misfit=6.469E+00
2025-09-05 15:44:04 [DEBU] | AA.S000532..PRE misfit=6.469E+00
2025-09-05 15:44:04 [DEBU] | AA.S000653..PRE misfit=6.469E+00
2025-09-05 15:44:04 [INFO] | PREPROCESSING AA.S000610..PRE
2025-09-05 15:44:04 [DEBU] | AA.S000675..PRE misfit=6.469E+00
2025-09-05 15:44:04 [INFO] | PREPROCESSING AA.S000402..PRE
2025-09-05 15:44:04 [INFO] | PREPROCESSING AA.S000576..PRE
2025-09-05 15:44:04 [DEBU] | AA.S000402..PRE misfit=6.469E+00
2025-09-05 15:44:04 [DEBU] | AA.S000610..PRE misfit=6.469E+00
2025-09-05 15:44:04 [INFO] | PREPROCESSING AA.S000423..PRE
2025-09-05 15:44:04 [DEBU] | AA.S000576..PRE misfit=6.469E+00
2025-09-05 15:44:04 [INFO] | PREPROCESSING AA.S000471..PRE
2025-09-05 15:44:04 [INFO] | PREPROCESSING AA.S000497..PRE
2025-09-05 15:44:04 [DEBU] | AA.S000423..PRE misfit=6.469E+00
2025-09-05 15:44:04 [INFO] | PREPROCESSING AA.S000652..PRE
2025-09-05 15:44:04 [INFO] | PREPROCESSING AA.S000446..PRE
2025-09-05 15:44:04 [INFO] | PREPROCESSING AA.S000780..PRE
2025-09-05 15:44:04 [DEBU] | AA.S000471..PRE misfit=6.469E+00
2025-09-05 15:44:04 [DEBU] | AA.S000652..PRE misfit=6.469E+00
2025-09-05 15:44:04 [DEBU] | AA.S000446..PRE misfit=6.469E+00
2025-09-05 15:44:04 [DEBU] | AA.S000497..PRE misfit=6.469E+00
2025-09-05 15:44:04 [DEBU] | AA.S000780..PRE misfit=6.469E+00
2025-09-05 15:44:04 [INFO] | PREPROCESSING AA.S000476..PRE
2025-09-05 15:44:04 [INFO] | PREPROCESSING AA.S000777..PRE
2025-09-05 15:44:04 [DEBU] | AA.S000476..PRE misfit=6.469E+00
2025-09-05 15:44:04 [INFO] | PREPROCESSING AA.S000728..PRE
2025-09-05 15:44:04 [DEBU] | AA.S000777..PRE misfit=6.469E+00
2025-09-05 15:44:04 [INFO] | PREPROCESSING AA.S000492..PRE
2025-09-05 15:44:04 [INFO] | PREPROCESSING AA.S000737..PRE
2025-09-05 15:44:04 [INFO] | PREPROCESSING AA.S000389..PRE
2025-09-05 15:44:04 [DEBU] | AA.S000728..PRE misfit=6.469E+00
2025-09-05 15:44:04 [INFO] | PREPROCESSING AA.S000565..PRE
2025-09-05 15:44:04 [DEBU] | AA.S000492..PRE misfit=6.469E+00
2025-09-05 15:44:04 [DEBU] | AA.S000737..PRE misfit=6.469E+00
2025-09-05 15:44:04 [DEBU] | AA.S000389..PRE misfit=6.469E+00
2025-09-05 15:44:04 [DEBU] | AA.S000565..PRE misfit=6.469E+00
2025-09-05 15:44:04 [INFO] | PREPROCESSING AA.S000633..PRE
2025-09-05 15:44:04 [INFO] | PREPROCESSING AA.S000420..PRE
2025-09-05 15:44:04 [INFO] | PREPROCESSING AA.S000622..PRE
2025-09-05 15:44:04 [INFO] | PREPROCESSING AA.S000671..PRE
2025-09-05 15:44:04 [DEBU] | AA.S000420..PRE misfit=6.469E+00
2025-09-05 15:44:04 [DEBU] | AA.S000633..PRE misfit=6.469E+00
2025-09-05 15:44:04 [DEBU] | AA.S000622..PRE misfit=6.469E+00
2025-09-05 15:44:04 [DEBU] | AA.S000671..PRE misfit=6.469E+00
2025-09-05 15:44:04 [INFO] | PREPROCESSING AA.S000624..PRE
2025-09-05 15:44:04 [DEBU] | AA.S000624..PRE misfit=6.469E+00
2025-09-05 15:44:04 [INFO] | PREPROCESSING AA.S000637..PRE
2025-09-05 15:44:04 [INFO] | PREPROCESSING AA.S000590..PRE
2025-09-05 15:44:04 [DEBU] | AA.S000637..PRE misfit=6.469E+00
2025-09-05 15:44:04 [DEBU] | AA.S000590..PRE misfit=6.469E+00
2025-09-05 15:44:04 [INFO] | PREPROCESSING AA.S000510..PRE
2025-09-05 15:44:04 [DEBU] | AA.S000510..PRE misfit=6.469E+00
2025-09-05 15:44:04 [INFO] | PREPROCESSING AA.S000461..PRE
2025-09-05 15:44:04 [INFO] | PREPROCESSING AA.S000512..PRE
2025-09-05 15:44:04 [INFO] | PREPROCESSING AA.S000398..PRE
2025-09-05 15:44:04 [DEBU] | AA.S000461..PRE misfit=6.469E+00
2025-09-05 15:44:04 [DEBU] | AA.S000512..PRE misfit=6.469E+00
2025-09-05 15:44:04 [DEBU] | AA.S000398..PRE misfit=6.469E+00
2025-09-05 15:44:04 [INFO] | PREPROCESSING AA.S000399..PRE
2025-09-05 15:44:04 [INFO] | PREPROCESSING AA.S000440..PRE
2025-09-05 15:44:04 [DEBU] | AA.S000399..PRE misfit=6.469E+00
2025-09-05 15:44:04 [DEBU] | AA.S000440..PRE misfit=6.469E+00
2025-09-05 15:44:04 [INFO] | PREPROCESSING AA.S000716..PRE
2025-09-05 15:44:04 [INFO] | PREPROCESSING AA.S000495..PRE
2025-09-05 15:44:04 [INFO] | PREPROCESSING AA.S000629..PRE
2025-09-05 15:44:04 [DEBU] | AA.S000716..PRE misfit=6.469E+00
2025-09-05 15:44:04 [DEBU] | AA.S000495..PRE misfit=6.469E+00
2025-09-05 15:44:04 [DEBU] | AA.S000629..PRE misfit=6.469E+00
2025-09-05 15:44:04 [INFO] | PREPROCESSING AA.S000649..PRE
2025-09-05 15:44:04 [DEBU] | AA.S000649..PRE misfit=6.469E+00
2025-09-05 15:44:04 [INFO] | PREPROCESSING AA.S000479..PRE
2025-09-05 15:44:04 [DEBU] | AA.S000479..PRE misfit=6.469E+00
2025-09-05 15:44:04 [INFO] | PREPROCESSING AA.S000654..PRE
2025-09-05 15:44:04 [DEBU] | AA.S000654..PRE misfit=6.469E+00
2025-09-05 15:44:04 [INFO] | PREPROCESSING AA.S000644..PRE
2025-09-05 15:44:04 [INFO] | PREPROCESSING AA.S000454..PRE
2025-09-05 15:44:04 [DEBU] | AA.S000644..PRE misfit=6.469E+00
2025-09-05 15:44:04 [DEBU] | AA.S000454..PRE misfit=6.469E+00
2025-09-05 15:44:04 [INFO] | PREPROCESSING AA.S000486..PRE
2025-09-05 15:44:04 [DEBU] | AA.S000486..PRE misfit=6.469E+00
2025-09-05 15:44:04 [INFO] | PREPROCESSING AA.S000664..PRE
2025-09-05 15:44:04 [DEBU] | AA.S000664..PRE misfit=6.469E+00
2025-09-05 15:44:04 [INFO] | PREPROCESSING AA.S000723..PRE
2025-09-05 15:44:04 [INFO] | PREPROCESSING AA.S000390..PRE
2025-09-05 15:44:04 [DEBU] | AA.S000723..PRE misfit=6.469E+00
2025-09-05 15:44:04 [DEBU] | AA.S000390..PRE misfit=6.469E+00
2025-09-05 15:44:04 [INFO] | PREPROCESSING AA.S000657..PRE
2025-09-05 15:44:04 [DEBU] | AA.S000657..PRE misfit=6.469E+00
2025-09-05 15:44:04 [INFO] | PREPROCESSING AA.S000521..PRE
2025-09-05 15:44:04 [INFO] | PREPROCESSING AA.S000640..PRE
2025-09-05 15:44:04 [DEBU] | AA.S000521..PRE misfit=6.469E+00
2025-09-05 15:44:04 [DEBU] | AA.S000640..PRE misfit=6.469E+00
2025-09-05 15:44:04 [INFO] | PREPROCESSING AA.S000646..PRE
2025-09-05 15:44:04 [DEBU] | AA.S000646..PRE misfit=6.469E+00
2025-09-05 15:44:04 [INFO] | PREPROCESSING AA.S000759..PRE
2025-09-05 15:44:04 [DEBU] | AA.S000759..PRE misfit=6.469E+00
2025-09-05 15:44:04 [INFO] | PREPROCESSING AA.S000656..PRE
2025-09-05 15:44:04 [DEBU] | AA.S000656..PRE misfit=6.469E+00
2025-09-05 15:44:04 [INFO] | PREPROCESSING AA.S000448..PRE
2025-09-05 15:44:04 [DEBU] | AA.S000448..PRE misfit=6.469E+00
2025-09-05 15:44:04 [INFO] | PREPROCESSING AA.S000546..PRE
2025-09-05 15:44:04 [INFO] | PREPROCESSING AA.S000692..PRE
2025-09-05 15:44:04 [DEBU] | AA.S000546..PRE misfit=6.469E+00
2025-09-05 15:44:04 [DEBU] | AA.S000692..PRE misfit=6.469E+00
2025-09-05 15:44:04 [INFO] | PREPROCESSING AA.S000635..PRE
2025-09-05 15:44:04 [DEBU] | AA.S000635..PRE misfit=6.469E+00
2025-09-05 15:44:04 [INFO] | PREPROCESSING AA.S000473..PRE
2025-09-05 15:44:04 [DEBU] | AA.S000473..PRE misfit=6.469E+00
2025-09-05 15:44:04 [INFO] | PREPROCESSING AA.S000636..PRE
2025-09-05 15:44:04 [DEBU] | AA.S000636..PRE misfit=6.469E+00
2025-09-05 15:44:04 [INFO] | PREPROCESSING AA.S000614..PRE
2025-09-05 15:44:04 [DEBU] | AA.S000614..PRE misfit=6.469E+00
2025-09-05 15:44:04 [INFO] | PREPROCESSING AA.S000541..PRE
2025-09-05 15:44:04 [DEBU] | AA.S000541..PRE misfit=6.469E+00
2025-09-05 15:44:04 [INFO] | PREPROCESSING AA.S000706..PRE
2025-09-05 15:44:04 [DEBU] | AA.S000706..PRE misfit=6.469E+00
2025-09-05 15:44:04 [INFO] | PREPROCESSING AA.S000592..PRE
2025-09-05 15:44:04 [DEBU] | AA.S000592..PRE misfit=6.469E+00
2025-09-05 15:44:04 [INFO] | PREPROCESSING AA.S000518..PRE
2025-09-05 15:44:04 [DEBU] | AA.S000518..PRE misfit=6.469E+00
2025-09-05 15:44:04 [INFO] | PREPROCESSING AA.S000645..PRE
2025-09-05 15:44:04 [INFO] | PREPROCESSING AA.S000688..PRE
2025-09-05 15:44:04 [DEBU] | AA.S000645..PRE misfit=6.469E+00
2025-09-05 15:44:04 [DEBU] | AA.S000688..PRE misfit=6.469E+00
2025-09-05 15:44:04 [INFO] | PREPROCESSING AA.S000600..PRE
2025-09-05 15:44:04 [INFO] | PREPROCESSING AA.S000627..PRE
2025-09-05 15:44:04 [DEBU] | AA.S000600..PRE misfit=6.469E+00
2025-09-05 15:44:04 [DEBU] | AA.S000627..PRE misfit=6.469E+00
2025-09-05 15:44:04 [INFO] | PREPROCESSING AA.S000439..PRE
2025-09-05 15:44:04 [DEBU] | AA.S000439..PRE misfit=6.469E+00
2025-09-05 15:44:04 [INFO] | PREPROCESSING AA.S000611..PRE
2025-09-05 15:44:04 [DEBU] | AA.S000611..PRE misfit=6.469E+00
2025-09-05 15:44:04 [INFO] | PREPROCESSING AA.S000661..PRE
2025-09-05 15:44:04 [DEBU] | AA.S000661..PRE misfit=6.469E+00
2025-09-05 15:44:04 [INFO] | PREPROCESSING AA.S000550..PRE
2025-09-05 15:44:04 [DEBU] | AA.S000550..PRE misfit=6.469E+00
2025-09-05 15:44:04 [INFO] | PREPROCESSING AA.S000647..PRE
2025-09-05 15:44:04 [DEBU] | AA.S000647..PRE misfit=6.469E+00
2025-09-05 15:44:04 [INFO] | PREPROCESSING AA.S000456..PRE
2025-09-05 15:44:04 [DEBU] | AA.S000456..PRE misfit=6.469E+00
2025-09-05 15:44:04 [INFO] | PREPROCESSING AA.S000607..PRE
2025-09-05 15:44:04 [DEBU] | AA.S000607..PRE misfit=6.469E+00
2025-09-05 15:44:04 [INFO] | PREPROCESSING AA.S000770..PRE
2025-09-05 15:44:04 [DEBU] | AA.S000770..PRE misfit=6.469E+00
2025-09-05 15:44:04 [INFO] | PREPROCESSING AA.S000534..PRE
2025-09-05 15:44:04 [DEBU] | AA.S000534..PRE misfit=6.469E+00
2025-09-05 15:44:04 [INFO] | PREPROCESSING AA.S000409..PRE
2025-09-05 15:44:04 [DEBU] | AA.S000409..PRE misfit=6.469E+00
2025-09-05 15:44:04 [INFO] | PREPROCESSING AA.S000400..PRE
2025-09-05 15:44:04 [DEBU] | AA.S000400..PRE misfit=6.469E+00
2025-09-05 15:44:04 [INFO] | PREPROCESSING AA.S000578..PRE
2025-09-05 15:44:04 [DEBU] | AA.S000578..PRE misfit=6.469E+00
2025-09-05 15:44:04 [INFO] | PREPROCESSING AA.S000634..PRE
2025-09-05 15:44:04 [DEBU] | AA.S000634..PRE misfit=6.469E+00
2025-09-05 15:44:04 [INFO] | PREPROCESSING AA.S000603..PRE
2025-09-05 15:44:04 [DEBU] | AA.S000603..PRE misfit=6.469E+00
2025-09-05 15:44:04 [INFO] | PREPROCESSING AA.S000606..PRE
2025-09-05 15:44:04 [DEBU] | AA.S000606..PRE misfit=6.469E+00
2025-09-05 15:44:04 [INFO] | PREPROCESSING AA.S000551..PRE
2025-09-05 15:44:24 [INFO] | PREPROCESSING AA.S000711..PRE
2025-09-05 15:44:24 [INFO] | PREPROCESSING AA.S000655..PRE
2025-09-05 15:44:24 [INFO] | PREPROCESSING AA.S000667..PRE
2025-09-05 15:44:24 [INFO] | PREPROCESSING AA.S000588..PRE
2025-09-05 15:44:24 [INFO] | PREPROCESSING AA.S000776..PRE
2025-09-05 15:44:24 [INFO] | PREPROCESSING AA.S000751..PRE
2025-09-05 15:44:24 [INFO] | PREPROCESSING AA.S000707..PRE
2025-09-05 15:44:24 [INFO] | PREPROCESSING AA.S000465..PRE
2025-09-05 15:44:24 [INFO] | PREPROCESSING AA.S000604..PRE
2025-09-05 15:44:24 [INFO] | PREPROCESSING AA.S000631..PRE
2025-09-05 15:44:24 [DEBU] | AA.S000655..PRE misfit=6.469E+00
2025-09-05 15:44:24 [INFO] | PREPROCESSING AA.S000506..PRE
2025-09-05 15:44:24 [INFO] | PREPROCESSING AA.S000714..PRE
2025-09-05 15:44:24 [INFO] | PREPROCESSING AA.S000786..PRE
2025-09-05 15:44:24 [DEBU] | AA.S000667..PRE misfit=6.469E+00
2025-09-05 15:44:24 [INFO] | PREPROCESSING AA.S000425..PRE
2025-09-05 15:44:24 [INFO] | PREPROCESSING AA.S000478..PRE
2025-09-05 15:44:24 [INFO] | PREPROCESSING AA.S000571..PRE
2025-09-05 15:44:24 [INFO] | PREPROCESSING AA.S000742..PRE
2025-09-05 15:44:24 [DEBU] | AA.S000588..PRE misfit=6.469E+00
2025-09-05 15:44:24 [INFO] | PREPROCESSING AA.S000388..PRE
2025-09-05 15:44:24 [DEBU] | AA.S000711..PRE misfit=6.469E+00
2025-09-05 15:44:24 [INFO] | PREPROCESSING AA.S000760..PRE
2025-09-05 15:44:24 [INFO] | PREPROCESSING AA.S000536..PRE
2025-09-05 15:44:24 [DEBU] | AA.S000551..PRE misfit=6.469E+00
2025-09-05 15:44:24 [INFO] | PREPROCESSING AA.S000513..PRE
2025-09-05 15:44:24 [DEBU] | AA.S000751..PRE misfit=6.469E+00
2025-09-05 15:44:24 [INFO] | PREPROCESSING AA.S000730..PRE
2025-09-05 15:44:24 [INFO] | PREPROCESSING AA.S000539..PRE
2025-09-05 15:44:24 [INFO] | PREPROCESSING AA.S000533..PRE
2025-09-05 15:44:24 [INFO] | PREPROCESSING AA.S000677..PRE
2025-09-05 15:44:24 [DEBU] | AA.S000707..PRE misfit=6.469E+00
[...]
2025-09-05 17:48:50 [INFO] | PREPROCESSING AA.S003651..PRE
2025-09-05 17:48:50 [DEBU] | AA.S003651..PRE misfit=4.500E-06
2025-09-05 17:48:51 [INFO] | PREPROCESSING AA.S003672..PRE
2025-09-05 17:48:51 [INFO] | PREPROCESSING AA.S003578..PRE
2025-09-05 17:48:51 [DEBU] | AA.S003672..PRE misfit=4.050E-05
2025-09-05 17:48:51 [DEBU] | AA.S003578..PRE misfit=1.125E-04
2025-09-05 17:48:51 [INFO] | PREPROCESSING AA.S003538..PRE
2025-09-05 17:48:51 [DEBU] | AA.S003538..PRE misfit=2.205E-04
2025-09-05 17:48:52 [INFO] | PREPROCESSING AA.S003715..PRE
2025-09-05 17:48:52 [DEBU] | AA.S003715..PRE misfit=1.620E-04
2025-09-05 17:48:52 [INFO] | PREPROCESSING AA.S003543..PRE
2025-09-05 17:48:52 [DEBU] | AA.S003543..PRE misfit=2.205E-04
2025-09-05 17:48:52 [INFO] | PREPROCESSING AA.S003656..PRE
2025-09-05 17:48:52 [DEBU] | AA.S003656..PRE misfit=1.800E-05
2025-09-05 17:48:52 [INFO] | PREPROCESSING AA.S003634..PRE
2025-09-05 17:48:52 [DEBU] | AA.S003634..PRE misfit=0.000E+00
2025-09-05 17:48:52 [INFO] | PREPROCESSING AA.S003613..PRE
2025-09-05 17:48:52 [DEBU] | AA.S003613..PRE misfit=1.800E-05
2025-09-05 17:48:53 [INFO] | PREPROCESSING AA.S003553..PRE
2025-09-05 17:48:53 [DEBU] | AA.S003553..PRE misfit=2.205E-04
2025-09-05 17:48:53 [INFO] | PREPROCESSING AA.S003589..PRE
2025-09-05 17:48:53 [DEBU] | AA.S003589..PRE misfit=7.200E-05
2025-09-05 17:48:54 [INFO] | PREPROCESSING AA.S003602..PRE
2025-09-05 17:48:54 [DEBU] | AA.S003602..PRE misfit=4.050E-05
2025-09-05 17:48:55 [INFO] | PREPROCESSING AA.S003684..PRE
2025-09-05 17:48:55 [DEBU] | AA.S003684..PRE misfit=7.200E-05
2025-09-05 17:48:55 [INFO] | PREPROCESSING AA.S003606..PRE
2025-09-05 17:48:55 [DEBU] | AA.S003606..PRE misfit=4.050E-05
2025-09-05 17:48:55 [INFO] | PREPROCESSING AA.S003562..PRE
2025-09-05 17:48:55 [DEBU] | AA.S003562..PRE misfit=1.620E-04
2025-09-05 17:48:55 [INFO] | PREPROCESSING AA.S003657..PRE
2025-09-05 17:48:55 [DEBU] | AA.S003657..PRE misfit=1.800E-05
2025-09-05 17:48:56 [INFO] | PREPROCESSING AA.S003622..PRE
2025-09-05 17:48:56 [DEBU] | AA.S003622..PRE misfit=4.500E-06
2025-09-05 17:48:56 [INFO] | PREPROCESSING AA.S003617..PRE
2025-09-05 17:48:56 [DEBU] | AA.S003617..PRE misfit=1.800E-05
2025-09-05 17:48:56 [INFO] | PREPROCESSING AA.S003547..PRE
2025-09-05 17:48:56 [DEBU] | AA.S003547..PRE misfit=2.205E-04
2025-09-05 17:48:56 [INFO] | PREPROCESSING AA.S003603..PRE
2025-09-05 17:48:56 [DEBU] | AA.S003603..PRE misfit=4.050E-05
2025-09-05 17:48:56 [INFO] | PREPROCESSING AA.S003717..PRE
2025-09-05 17:48:56 [DEBU] | AA.S003717..PRE misfit=2.205E-04
2025-09-05 17:48:56 [INFO] | PREPROCESSING AA.S003550..PRE
2025-09-05 17:48:56 [DEBU] | AA.S003550..PRE misfit=2.205E-04
2025-09-05 17:48:57 [INFO] | PREPROCESSING AA.S003645..PRE
2025-09-05 17:48:57 [DEBU] | AA.S003645..PRE misfit=4.500E-06
2025-09-05 17:48:57 [INFO] | PREPROCESSING AA.S003641..PRE
2025-09-05 17:48:57 [DEBU] | AA.S003641..PRE misfit=0.000E+00
2025-09-05 17:48:58 [INFO] | PREPROCESSING AA.S003598..PRE
2025-09-05 17:48:58 [DEBU] | AA.S003598..PRE misfit=4.050E-05
2025-09-05 17:48:58 [INFO] | PREPROCESSING AA.S003618..PRE
2025-09-05 17:48:58 [DEBU] | AA.S003618..PRE misfit=1.800E-05
2025-09-05 17:48:59 [INFO] | PREPROCESSING AA.S003556..PRE
2025-09-05 17:48:59 [DEBU] | AA.S003556..PRE misfit=2.205E-04
2025-09-05 17:48:59 [INFO] | PREPROCESSING AA.S003663..PRE
2025-09-05 17:48:59 [DEBU] | AA.S003663..PRE misfit=1.800E-05
2025-09-05 17:49:00 [INFO] | PREPROCESSING AA.S003646..PRE
2025-09-05 17:49:00 [DEBU] | AA.S003646..PRE misfit=4.500E-06
2025-09-05 17:49:00 [INFO] | PREPROCESSING AA.S003697..PRE
2025-09-05 17:49:00 [DEBU] | AA.S003697..PRE misfit=1.125E-04
2025-09-05 17:49:01 [INFO] | PREPROCESSING AA.S003728..PRE
2025-09-05 17:49:01 [DEBU] | AA.S003728..PRE misfit=2.205E-04
2025-09-05 17:49:02 [INFO] | PREPROCESSING AA.S003560..PRE
2025-09-05 17:49:02 [DEBU] | AA.S003560..PRE misfit=1.620E-04
2025-09-05 17:49:02 [INFO] | PREPROCESSING AA.S003689..PRE
2025-09-05 17:49:02 [DEBU] | AA.S003689..PRE misfit=7.200E-05
2025-09-05 17:49:03 [INFO] | PREPROCESSING AA.S003609..PRE
2025-09-05 17:49:03 [DEBU] | AA.S003609..PRE misfit=4.050E-05
2025-09-05 17:49:03 [INFO] | PREPROCESSING AA.S003714..PRE
2025-09-05 17:49:03 [DEBU] | AA.S003714..PRE misfit=1.620E-04
2025-09-05 17:49:03 [INFO] | PREPROCESSING AA.S003607..PRE
2025-09-05 17:49:03 [DEBU] | AA.S003607..PRE misfit=4.050E-05
2025-09-05 17:49:03 [INFO] | PREPROCESSING AA.S003678..PRE
2025-09-05 17:49:03 [DEBU] | AA.S003678..PRE misfit=7.200E-05
2025-09-05 17:49:03 [INFO] | PREPROCESSING AA.S003591..PRE
2025-09-05 17:49:03 [DEBU] | AA.S003591..PRE misfit=7.200E-05
2025-09-05 17:49:06 [INFO] | PREPROCESSING AA.S003740..PRE
2025-09-05 17:49:06 [DEBU] | AA.S003740..PRE misfit=2.880E-04
2025-09-05 17:49:06 [INFO] | PREPROCESSING AA.S003742..PRE
2025-09-05 17:49:06 [DEBU] | AA.S003742..PRE misfit=2.880E-04
2025-09-05 17:49:06 [INFO] | PREPROCESSING AA.S003739..PRE
2025-09-05 17:49:06 [DEBU] | AA.S003739..PRE misfit=2.880E-04
2025-09-05 17:49:06 [INFO] | PREPROCESSING AA.S003741..PRE
2025-09-05 17:49:06 [DEBU] | AA.S003741..PRE misfit=2.880E-04
2025-09-05 17:49:07 [INFO] | PREPROCESSING AA.S003743..PRE
2025-09-05 17:49:07 [DEBU] | AA.S003743..PRE misfit=2.880E-04
2025-09-05 17:49:07 [INFO] | PREPROCESSING AA.S003745..PRE
2025-09-05 17:49:07 [DEBU] | AA.S003745..PRE misfit=2.880E-04
2025-09-05 17:49:07 [INFO] | PREPROCESSING AA.S003736..PRE
2025-09-05 17:49:07 [DEBU] | AA.S003736..PRE misfit=2.880E-04
2025-09-05 17:49:09 [INFO] | PREPROCESSING AA.S003771..PRE
2025-09-05 17:49:09 [DEBU] | AA.S003771..PRE misfit=3.645E-04
2025-09-05 17:49:09 [INFO] | PREPROCESSING AA.S003762..PRE
2025-09-05 17:49:09 [DEBU] | AA.S003762..PRE misfit=3.645E-04
2025-09-05 17:49:09 [INFO] | PREPROCESSING AA.S003765..PRE
2025-09-05 17:49:09 [DEBU] | AA.S003765..PRE misfit=3.645E-04
2025-09-05 17:49:10 [INFO] | PREPROCESSING AA.S003778..PRE
2025-09-05 17:49:10 [DEBU] | AA.S003778..PRE misfit=3.645E-04
2025-09-05 17:49:10 [INFO] | PREPROCESSING AA.S003761..PRE
2025-09-05 17:49:10 [DEBU] | AA.S003761..PRE misfit=3.645E-04
2025-09-05 17:49:10 [INFO] | PREPROCESSING AA.S003774..PRE
2025-09-05 17:49:10 [DEBU] | AA.S003774..PRE misfit=3.645E-04
2025-09-05 17:49:11 [INFO] | PREPROCESSING AA.S003763..PRE
2025-09-05 17:49:11 [DEBU] | AA.S003763..PRE misfit=3.645E-04
2025-09-05 17:49:11 [INFO] | PREPROCESSING AA.S003782..PRE
2025-09-05 17:49:11 [DEBU] | AA.S003782..PRE misfit=4.500E-04
2025-09-05 17:49:11 [INFO] | PREPROCESSING AA.S003792..PRE
2025-09-05 17:49:11 [DEBU] | AA.S003792..PRE misfit=4.500E-04
2025-09-05 17:49:12 [INFO] | PREPROCESSING AA.S003788..PRE
2025-09-05 17:49:12 [DEBU] | AA.S003788..PRE misfit=4.500E-04
2025-09-05 17:49:12 [INFO] | PREPROCESSING AA.S003796..PRE
2025-09-05 17:49:12 [DEBU] | AA.S003796..PRE misfit=4.500E-04
2025-09-05 17:49:12 [INFO] | PREPROCESSING AA.S003793..PRE
2025-09-05 17:49:12 [DEBU] | AA.S003793..PRE misfit=4.500E-04
2025-09-05 17:49:12 [INFO] | PREPROCESSING AA.S003802..PRE
2025-09-05 17:49:12 [DEBU] | AA.S003802..PRE misfit=5.445E-04
2025-09-05 17:49:12 [INFO] | PREPROCESSING AA.S003691..PRE
2025-09-05 17:49:12 [DEBU] | AA.S003691..PRE misfit=1.125E-04
2025-09-05 17:49:12 [INFO] | PREPROCESSING AA.S003726..PRE
2025-09-05 17:49:12 [DEBU] | AA.S003726..PRE misfit=2.205E-04
2025-09-05 17:49:13 [INFO] | PREPROCESSING AA.S003784..PRE
2025-09-05 17:49:13 [DEBU] | AA.S003784..PRE misfit=4.500E-04
2025-09-05 17:49:13 [INFO] | PREPROCESSING AA.S003750..PRE
2025-09-05 17:49:13 [DEBU] | AA.S003750..PRE misfit=2.880E-04
2025-09-05 17:49:13 [INFO] | PREPROCESSING AA.S003794..PRE
2025-09-05 17:49:13 [DEBU] | AA.S003794..PRE misfit=4.500E-04
2025-09-05 17:49:47 [INFO] | PREPROCESSING AA.S003718..PRE
2025-09-05 17:49:47 [DEBU] | AA.S003718..PRE misfit=2.205E-04
2025-09-05 17:49:47 [INFO] | PREPROCESSING AA.S003668..PRE
2025-09-05 17:49:47 [DEBU] | AA.S003668..PRE misfit=4.050E-05
2025-09-05 17:49:47 [INFO] | PREPROCESSING AA.S003662..PRE
2025-09-05 17:49:47 [DEBU] | AA.S003662..PRE misfit=1.800E-05
2025-09-05 17:49:51 [INFO] | PREPROCESSING AA.S003665..PRE
2025-09-05 17:49:51 [DEBU] | AA.S003665..PRE misfit=4.050E-05
2025-09-05 17:49:51 [INFO] | PREPROCESSING AA.S003713..PRE
2025-09-05 17:49:51 [DEBU] | AA.S003713..PRE misfit=1.620E-04
2025-09-05 17:49:51 [INFO] | PREPROCESSING AA.S003551..PRE
2025-09-05 17:49:51 [DEBU] | AA.S003551..PRE misfit=2.205E-04
2025-09-05 17:49:51 [INFO] | PREPROCESSING AA.S003675..PRE
2025-09-05 17:49:51 [INFO] | PREPROCESSING AA.S003667..PRE
2025-09-05 17:49:51 [DEBU] | AA.S003675..PRE misfit=4.050E-05
2025-09-05 17:49:51 [DEBU] | AA.S003667..PRE misfit=4.050E-05
2025-09-05 17:49:51 [INFO] | PREPROCESSING AA.S003686..PRE
2025-09-05 17:49:51 [DEBU] | AA.S003686..PRE misfit=7.200E-05
2025-09-05 17:49:51 [INFO] | PREPROCESSING AA.S003631..PRE
2025-09-05 17:49:51 [DEBU] | AA.S003631..PRE misfit=0.000E+00
2025-09-05 17:49:51 [INFO] | PREPROCESSING AA.S003637..PRE
2025-09-05 17:49:51 [DEBU] | AA.S003637..PRE misfit=0.000E+00
2025-09-05 17:49:51 [INFO] | PREPROCESSING AA.S003639..PRE
2025-09-05 17:49:51 [DEBU] | AA.S003639..PRE misfit=0.000E+00
2025-09-05 17:49:51 [INFO] | PREPROCESSING AA.S003706..PRE
2025-09-05 17:49:51 [DEBU] | AA.S003706..PRE misfit=1.620E-04
2025-09-05 17:49:51 [INFO] | PREPROCESSING AA.S003735..PRE
2025-09-05 17:49:51 [DEBU] | AA.S003735..PRE misfit=2.880E-04
2025-09-05 17:49:51 [INFO] | PREPROCESSING AA.S003722..PRE
2025-09-05 17:49:51 [DEBU] | AA.S003722..PRE misfit=2.205E-04
2025-09-05 17:49:51 [INFO] | PREPROCESSING AA.S003733..PRE
2025-09-05 17:49:51 [DEBU] | AA.S003733..PRE misfit=2.205E-04
2025-09-05 17:49:51 [INFO] | PREPROCESSING AA.S003797..PRE
2025-09-05 17:49:51 [DEBU] | AA.S003797..PRE misfit=4.500E-04
2025-09-05 17:49:51 [INFO] | PREPROCESSING AA.S003747..PRE
2025-09-05 17:49:51 [DEBU] | AA.S003747..PRE misfit=2.880E-04
2025-09-05 17:49:51 [INFO] | PREPROCESSING AA.S003711..PRE
2025-09-05 17:49:51 [DEBU] | AA.S003711..PRE misfit=1.620E-04
2025-09-05 17:49:51 [INFO] | PREPROCESSING AA.S003670..PRE
2025-09-05 17:49:51 [INFO] | PREPROCESSING AA.S003696..PRE
2025-09-05 17:49:51 [INFO] | PREPROCESSING AA.S003723..PRE
2025-09-05 17:49:51 [DEBU] | AA.S003670..PRE misfit=4.050E-05
2025-09-05 17:49:51 [DEBU] | AA.S003696..PRE misfit=1.125E-04
2025-09-05 17:49:51 [DEBU] | AA.S003723..PRE misfit=2.205E-04
2025-09-05 17:49:52 [INFO] | PREPROCESSING AA.S003781..PRE
2025-09-05 17:49:52 [DEBU] | AA.S003781..PRE misfit=4.500E-04
2025-09-05 17:49:52 [INFO] | PREPROCESSING AA.S003757..PRE
2025-09-05 17:49:52 [DEBU] | AA.S003757..PRE misfit=2.880E-04
2025-09-05 17:49:52 [INFO] | PREPROCESSING AA.S003766..PRE
2025-09-05 17:49:52 [DEBU] | AA.S003766..PRE misfit=3.645E-04
2025-09-05 17:49:52 [INFO] | PREPROCESSING AA.S003687..PRE
2025-09-05 17:49:52 [DEBU] | AA.S003687..PRE misfit=7.200E-05
2025-09-05 17:49:52 [INFO] | PREPROCESSING AA.S003767..PRE
2025-09-05 17:49:52 [DEBU] | AA.S003767..PRE misfit=3.645E-04
2025-09-05 17:49:52 [INFO] | PREPROCESSING AA.S003727..PRE
2025-09-05 17:49:52 [DEBU] | AA.S003727..PRE misfit=2.205E-04
2025-09-05 17:49:52 [INFO] | PREPROCESSING AA.S003690..PRE
2025-09-05 17:49:52 [DEBU] | AA.S003690..PRE misfit=1.125E-04
2025-09-05 17:49:52 [INFO] | PREPROCESSING AA.S003719..PRE
2025-09-05 17:49:52 [DEBU] | AA.S003719..PRE misfit=2.205E-04
2025-09-05 17:49:52 [INFO] | PREPROCESSING AA.S003693..PRE
2025-09-05 17:49:52 [DEBU] | AA.S003693..PRE misfit=1.125E-04
2025-09-05 17:49:52 [INFO] | PREPROCESSING AA.S003674..PRE
2025-09-05 17:49:52 [DEBU] | AA.S003674..PRE misfit=4.050E-05
2025-09-05 17:49:52 [INFO] | PREPROCESSING AA.S003748..PRE
2025-09-05 17:49:52 [DEBU] | AA.S003748..PRE misfit=2.880E-04
2025-09-05 17:49:52 [INFO] | PREPROCESSING AA.S003749..PRE
2025-09-05 17:49:52 [DEBU] | AA.S003749..PRE misfit=2.880E-04
2025-09-05 17:49:52 [INFO] | PREPROCESSING AA.S003839..PRE
2025-09-05 17:49:52 [DEBU] | AA.S003839..PRE misfit=8.820E-04
2025-09-05 17:50:27 [INFO] | PREPROCESSING AA.S003860..PRE
2025-09-05 17:50:27 [INFO] | PREPROCESSING AA.S003768..PRE
2025-09-05 17:50:27 [DEBU] | AA.S003860..PRE misfit=1.152E-03
2025-09-05 17:50:27 [DEBU] | AA.S003768..PRE misfit=3.645E-04
2025-09-05 17:50:27 [INFO] | PREPROCESSING AA.S003798..PRE
2025-09-05 17:50:27 [DEBU] | AA.S003798..PRE misfit=5.445E-04
2025-09-05 17:50:27 [INFO] | PREPROCESSING AA.S003760..PRE
2025-09-05 17:50:27 [DEBU] | AA.S003760..PRE misfit=3.645E-04
2025-09-05 17:50:27 [INFO] | PREPROCESSING AA.S003738..PRE
2025-09-05 17:50:27 [DEBU] | AA.S003738..PRE misfit=2.880E-04
2025-09-05 17:50:27 [INFO] | PREPROCESSING AA.S003683..PRE
2025-09-05 17:50:27 [DEBU] | AA.S003683..PRE misfit=7.200E-05
2025-09-05 17:50:27 [INFO] | PREPROCESSING AA.S003752..PRE
2025-09-05 17:50:27 [DEBU] | AA.S003752..PRE misfit=2.880E-04
2025-09-05 17:50:27 [INFO] | PREPROCESSING AA.S003695..PRE
2025-09-05 17:50:27 [DEBU] | AA.S003695..PRE misfit=1.125E-04
2025-09-05 17:50:27 [INFO] | PREPROCESSING AA.S003698..PRE
2025-09-05 17:50:27 [INFO] | PREPROCESSING AA.S003783..PRE
2025-09-05 17:50:27 [DEBU] | AA.S003698..PRE misfit=1.125E-04
2025-09-05 17:50:27 [INFO] | PREPROCESSING AA.S003671..PRE
2025-09-05 17:50:27 [INFO] | PREPROCESSING AA.S003751..PRE
2025-09-05 17:50:27 [DEBU] | AA.S003783..PRE misfit=4.500E-04
2025-09-05 17:50:27 [DEBU] | AA.S003751..PRE misfit=2.880E-04
2025-09-05 17:50:27 [INFO] | PREPROCESSING AA.S003731..PRE
2025-09-05 17:50:27 [DEBU] | AA.S003671..PRE misfit=4.050E-05
2025-09-05 17:50:27 [DEBU] | AA.S003731..PRE misfit=2.205E-04
2025-09-05 17:50:27 [INFO] | PREPROCESSING AA.S003705..PRE
2025-09-05 17:50:27 [DEBU] | AA.S003705..PRE misfit=1.620E-04
2025-09-05 17:50:27 [INFO] | PREPROCESSING AA.S003734..PRE
2025-09-05 17:50:27 [INFO] | PREPROCESSING AA.S003732..PRE
2025-09-05 17:50:27 [DEBU] | AA.S003734..PRE misfit=2.205E-04
2025-09-05 17:50:27 [DEBU] | AA.S003732..PRE misfit=2.205E-04
2025-09-05 17:50:27 [INFO] | PREPROCESSING AA.S003721..PRE
2025-09-05 17:50:27 [DEBU] | AA.S003721..PRE misfit=2.205E-04
2025-09-05 17:50:27 [INFO] | PREPROCESSING AA.S003770..PRE
2025-09-05 17:50:27 [DEBU] | AA.S003770..PRE misfit=3.645E-04
2025-09-05 17:50:27 [INFO] | PREPROCESSING AA.S003816..PRE
2025-09-05 17:50:27 [INFO] | PREPROCESSING AA.S003795..PRE
2025-09-05 17:50:27 [INFO] | PREPROCESSING AA.S003688..PRE
2025-09-05 17:50:27 [INFO] | PREPROCESSING AA.S003725..PRE
2025-09-05 17:50:27 [DEBU] | AA.S003816..PRE misfit=6.480E-04
2025-09-05 17:50:27 [DEBU] | AA.S003725..PRE misfit=2.205E-04
2025-09-05 17:50:27 [DEBU] | AA.S003795..PRE misfit=4.500E-04
2025-09-05 17:50:27 [DEBU] | AA.S003688..PRE misfit=7.200E-05
2025-09-05 17:50:27 [INFO] | PREPROCESSING AA.S003694..PRE
2025-09-05 17:50:27 [INFO] | PREPROCESSING AA.S003709..PRE
2025-09-05 17:50:27 [INFO] | PREPROCESSING AA.S003703..PRE
2025-09-05 17:50:27 [INFO] | PREPROCESSING AA.S003850..PRE
2025-09-05 17:50:27 [DEBU] | AA.S003694..PRE misfit=1.125E-04
2025-09-05 17:50:27 [DEBU] | AA.S003709..PRE misfit=1.620E-04
2025-09-05 17:50:27 [DEBU] | AA.S003703..PRE misfit=1.620E-04
2025-09-05 17:50:27 [INFO] | PREPROCESSING AA.S003790..PRE
2025-09-05 17:50:27 [DEBU] | AA.S003850..PRE misfit=1.012E-03
2025-09-05 17:50:27 [DEBU] | AA.S003790..PRE misfit=4.500E-04
2025-09-05 17:50:27 [INFO] | PREPROCESSING AA.S003680..PRE
2025-09-05 17:50:27 [DEBU] | AA.S003680..PRE misfit=7.200E-05
2025-09-05 17:50:27 [INFO] | PREPROCESSING AA.S003708..PRE
2025-09-05 17:50:27 [INFO] | PREPROCESSING AA.S003712..PRE
2025-09-05 17:50:27 [DEBU] | AA.S003708..PRE misfit=1.620E-04
2025-09-05 17:50:27 [DEBU] | AA.S003712..PRE misfit=1.620E-04
2025-09-05 17:50:27 [INFO] | PREPROCESSING AA.S003857..PRE
2025-09-05 17:50:27 [INFO] | PREPROCESSING AA.S003707..PRE
2025-09-05 17:50:27 [DEBU] | AA.S003857..PRE misfit=1.152E-03
2025-09-05 17:50:27 [DEBU] | AA.S003707..PRE misfit=1.620E-04
2025-09-05 17:50:27 [INFO] | PREPROCESSING AA.S003730..PRE
2025-09-05 17:50:27 [INFO] | PREPROCESSING AA.S003682..PRE
2025-09-05 17:50:27 [INFO] | PREPROCESSING AA.S003716..PRE
2025-09-05 17:50:27 [DEBU] | AA.S003730..PRE misfit=2.205E-04
2025-09-05 17:50:27 [INFO] | PREPROCESSING AA.S003758..PRE
2025-09-05 17:50:27 [INFO] | PREPROCESSING AA.S003701..PRE
2025-09-05 17:50:27 [DEBU] | AA.S003682..PRE misfit=7.200E-05
2025-09-05 17:50:27 [INFO] | PREPROCESSING AA.S003737..PRE
2025-09-05 17:50:27 [DEBU] | AA.S003716..PRE misfit=1.620E-04
2025-09-05 17:50:27 [INFO] | PREPROCESSING AA.S003744..PRE
2025-09-05 17:50:27 [DEBU] | AA.S003758..PRE misfit=3.645E-04
2025-09-05 17:50:27 [DEBU] | AA.S003701..PRE misfit=1.125E-04
2025-09-05 17:50:27 [DEBU] | AA.S003737..PRE misfit=2.880E-04
2025-09-05 17:50:27 [INFO] | PREPROCESSING AA.S003673..PRE
2025-09-05 17:50:27 [DEBU] | AA.S003744..PRE misfit=2.880E-04
2025-09-05 17:50:27 [INFO] | PREPROCESSING AA.S003887..PRE
2025-09-05 17:50:27 [DEBU] | AA.S003673..PRE misfit=4.050E-05
2025-09-05 17:50:27 [DEBU] | AA.S003887..PRE misfit=1.800E-03
2025-09-05 17:50:27 [INFO] | PREPROCESSING AA.S003700..PRE
2025-09-05 17:50:27 [INFO] | PREPROCESSING AA.S003779..PRE
2025-09-05 17:50:27 [DEBU] | AA.S003700..PRE misfit=1.125E-04
2025-09-05 17:50:27 [DEBU] | AA.S003779..PRE misfit=3.645E-04
2025-09-05 17:50:27 [INFO] | PREPROCESSING AA.S003681..PRE
2025-09-05 17:50:27 [INFO] | PREPROCESSING AA.S003754..PRE
2025-09-05 17:50:27 [INFO] | PREPROCESSING AA.S003799..PRE
2025-09-05 17:50:27 [DEBU] | AA.S003681..PRE misfit=7.200E-05
2025-09-05 17:50:27 [INFO] | PREPROCESSING AA.S003756..PRE
2025-09-05 17:50:27 [DEBU] | AA.S003754..PRE misfit=2.880E-04
2025-09-05 17:50:27 [INFO] | PREPROCESSING AA.S003669..PRE
2025-09-05 17:50:27 [DEBU] | AA.S003799..PRE misfit=5.445E-04
2025-09-05 17:50:27 [DEBU] | AA.S003669..PRE misfit=4.050E-05
2025-09-05 17:50:27 [DEBU] | AA.S003756..PRE misfit=2.880E-04
2025-09-05 17:50:27 [INFO] | PREPROCESSING AA.S003764..PRE
2025-09-05 17:50:27 [DEBU] | AA.S003764..PRE misfit=3.645E-04
2025-09-05 17:50:27 [INFO] | PREPROCESSING AA.S003780..PRE
2025-09-05 17:50:27 [INFO] | PREPROCESSING AA.S003753..PRE
2025-09-05 17:50:27 [DEBU] | AA.S003780..PRE misfit=3.645E-04
2025-09-05 17:50:27 [DEBU] | AA.S003753..PRE misfit=2.880E-04
2025-09-05 17:50:27 [INFO] | PREPROCESSING AA.S003772..PRE
2025-09-05 17:50:27 [DEBU] | AA.S003772..PRE misfit=3.645E-04
2025-09-05 17:50:27 [INFO] | PREPROCESSING AA.S003777..PRE
2025-09-05 17:50:27 [DEBU] | AA.S003777..PRE misfit=3.645E-04
2025-09-05 17:50:27 [INFO] | PREPROCESSING AA.S003823..PRE
2025-09-05 17:50:27 [INFO] | PREPROCESSING AA.S003866..PRE
2025-09-05 17:50:27 [INFO] | PREPROCESSING AA.S003692..PRE
2025-09-05 17:50:27 [INFO] | PREPROCESSING AA.S003755..PRE
2025-09-05 17:50:27 [INFO] | PREPROCESSING AA.S003883..PRE
2025-09-05 17:50:27 [DEBU] | AA.S003692..PRE misfit=1.125E-04
2025-09-05 17:50:27 [DEBU] | AA.S003823..PRE misfit=7.605E-04
2025-09-05 17:50:27 [DEBU] | AA.S003883..PRE misfit=1.625E-03
2025-09-05 17:50:27 [DEBU] | AA.S003755..PRE misfit=2.880E-04
2025-09-05 17:50:27 [DEBU] | AA.S003866..PRE misfit=1.301E-03
2025-09-05 17:50:27 [INFO] | PREPROCESSING AA.S003666..PRE
2025-09-05 17:50:27 [INFO] | PREPROCESSING AA.S003776..PRE
2025-09-05 17:50:27 [DEBU] | AA.S003666..PRE misfit=4.050E-05
2025-09-05 17:50:27 [DEBU] | AA.S003776..PRE misfit=3.645E-04
2025-09-05 17:50:27 [INFO] | PREPROCESSING AA.S003720..PRE
2025-09-05 17:50:27 [DEBU] | AA.S003720..PRE misfit=2.205E-04
2025-09-05 17:50:27 [INFO] | PREPROCESSING AA.S003791..PRE
2025-09-05 17:50:27 [DEBU] | AA.S003791..PRE misfit=4.500E-04
2025-09-05 17:50:27 [INFO] | PREPROCESSING AA.S003785..PRE
2025-09-05 17:50:27 [DEBU] | AA.S003785..PRE misfit=4.500E-04
2025-09-05 17:50:27 [INFO] | PREPROCESSING AA.S003769..PRE
2025-09-05 17:50:27 [DEBU] | AA.S003769..PRE misfit=3.645E-04
2025-09-05 17:50:27 [INFO] | PREPROCESSING AA.S003759..PRE
2025-09-05 17:50:27 [DEBU] | AA.S003759..PRE misfit=3.645E-04
2025-09-05 17:50:27 [INFO] | PREPROCESSING AA.S003787..PRE
2025-09-05 17:50:27 [DEBU] | AA.S003787..PRE misfit=4.500E-04
2025-09-05 17:50:28 [INFO] | PREPROCESSING AA.S003835..PRE
2025-09-05 17:50:28 [DEBU] | AA.S003835..PRE misfit=8.820E-04
