2025-09-05 14:55:04 [WARN] | data already found in 058/traces/obs/*, skipping data preparation
2025-09-05 14:55:04 [INFO] | evaluating objective function for source 058
2025-09-05 14:55:04 [DEBU] | running forward simulation with 'Specfem2D'
2025-09-05 14:55:04 [DEBU] | running executable with cmd: 'mpirun -n 7 bin/xmeshfem2D'
2025-09-05 14:55:06 [DEBU] | running executable with cmd: 'mpirun -n 7 bin/xspecfem2D'
2025-09-05 14:56:29 [INFO] | FINISH FORWARD SIMULATION: 058
2025-09-05 14:56:29 [DEBU] | quantifying misfit with 'Default'
2025-09-05 15:01:46 [DEBU] | found 5000 obs and 5000 syn waveforms for given paths
2025-09-05 15:01:46 [INFO] | 5000 traces matching between `obs` and `syn`
2025-09-05 15:01:47 [INFO] | PREPROCESSING AA.S000008..PRE
2025-09-05 15:01:47 [DEBU] | AA.S000008..PRE misfit=6.469E+00
2025-09-05 15:01:47 [INFO] | PREPROCESSING AA.S000018..PRE
2025-09-05 15:01:47 [DEBU] | AA.S000018..PRE misfit=6.469E+00
2025-09-05 15:01:47 [INFO] | PREPROCESSING AA.S000001..PRE
2025-09-05 15:01:47 [INFO] | PREPROCESSING AA.S000035..PRE
2025-09-05 15:01:47 [INFO] | PREPROCESSING AA.S000036..PRE
2025-09-05 15:01:47 [DEBU] | AA.S000001..PRE misfit=6.469E+00
2025-09-05 15:01:47 [INFO] | PREPROCESSING AA.S000037..PRE
2025-09-05 15:01:47 [INFO] | PREPROCESSING AA.S000038..PRE
2025-09-05 15:01:47 [DEBU] | AA.S000035..PRE misfit=6.469E+00
2025-09-05 15:01:47 [INFO] | PREPROCESSING AA.S000040..PRE
2025-09-05 15:01:47 [INFO] | PREPROCESSING AA.S000039..PRE
2025-09-05 15:01:47 [INFO] | PREPROCESSING AA.S000041..PRE
2025-09-05 15:01:47 [INFO] | PREPROCESSING AA.S000042..PRE
2025-09-05 15:01:47 [INFO] | PREPROCESSING AA.S000043..PRE
2025-09-05 15:01:47 [INFO] | PREPROCESSING AA.S000044..PRE
2025-09-05 15:01:47 [DEBU] | AA.S000036..PRE misfit=6.469E+00
2025-09-05 15:01:47 [DEBU] | AA.S000037..PRE misfit=6.469E+00
2025-09-05 15:01:47 [DEBU] | AA.S000038..PRE misfit=6.469E+00
2025-09-05 15:01:47 [DEBU] | AA.S000041..PRE misfit=6.469E+00
2025-09-05 15:01:47 [DEBU] | AA.S000040..PRE misfit=6.469E+00
2025-09-05 15:01:47 [INFO] | PREPROCESSING AA.S000049..PRE
2025-09-05 15:01:47 [INFO] | PREPROCESSING AA.S000047..PRE
2025-09-05 15:01:47 [INFO] | PREPROCESSING AA.S000045..PRE
2025-09-05 15:01:47 [INFO] | PREPROCESSING AA.S000046..PRE
2025-09-05 15:01:47 [INFO] | PREPROCESSING AA.S000002..PRE
2025-09-05 15:01:47 [DEBU] | AA.S000039..PRE misfit=6.469E+00
2025-09-05 15:01:47 [DEBU] | AA.S000044..PRE misfit=6.469E+00
2025-09-05 15:01:47 [INFO] | PREPROCESSING AA.S000052..PRE
2025-09-05 15:01:47 [DEBU] | AA.S000042..PRE misfit=6.469E+00
2025-09-05 15:01:47 [INFO] | PREPROCESSING AA.S000053..PRE
2025-09-05 15:01:47 [DEBU] | AA.S000049..PRE misfit=6.469E+00
2025-09-05 15:01:47 [INFO] | PREPROCESSING AA.S000054..PRE
2025-09-05 15:01:47 [DEBU] | AA.S000043..PRE misfit=6.469E+00
2025-09-05 15:01:47 [DEBU] | AA.S000046..PRE misfit=6.469E+00
2025-09-05 15:01:47 [DEBU] | AA.S000047..PRE misfit=6.469E+00
2025-09-05 15:01:47 [DEBU] | AA.S000045..PRE misfit=6.469E+00
2025-09-05 15:01:47 [DEBU] | AA.S000002..PRE misfit=6.469E+00
2025-09-05 15:01:47 [INFO] | PREPROCESSING AA.S000058..PRE
2025-09-05 15:01:47 [INFO] | PREPROCESSING AA.S000055..PRE
2025-09-05 15:01:47 [INFO] | PREPROCESSING AA.S000057..PRE
2025-09-05 15:01:47 [INFO] | PREPROCESSING AA.S000059..PRE
2025-09-05 15:01:47 [DEBU] | AA.S000052..PRE misfit=6.469E+00
2025-09-05 15:01:48 [DEBU] | AA.S000054..PRE misfit=6.469E+00
2025-09-05 15:01:48 [DEBU] | AA.S000053..PRE misfit=6.469E+00
2025-09-05 15:01:48 [INFO] | PREPROCESSING AA.S000062..PRE
2025-09-05 15:01:48 [INFO] | PREPROCESSING AA.S000064..PRE
2025-09-05 15:01:48 [INFO] | PREPROCESSING AA.S000061..PRE
2025-09-05 15:01:48 [DEBU] | AA.S000057..PRE misfit=6.469E+00
2025-09-05 15:01:48 [INFO] | PREPROCESSING AA.S000063..PRE
2025-09-05 15:01:48 [INFO] | PREPROCESSING AA.S000051..PRE
2025-09-05 15:01:48 [DEBU] | AA.S000055..PRE misfit=6.469E+00
2025-09-05 15:01:48 [DEBU] | AA.S000058..PRE misfit=6.469E+00
2025-09-05 15:01:48 [DEBU] | AA.S000059..PRE misfit=6.469E+00
2025-09-05 15:01:48 [DEBU] | AA.S000063..PRE misfit=6.469E+00
2025-09-05 15:01:48 [DEBU] | AA.S000064..PRE misfit=6.469E+00
2025-09-05 15:01:48 [DEBU] | AA.S000061..PRE misfit=6.469E+00
2025-09-05 15:01:48 [DEBU] | AA.S000051..PRE misfit=6.469E+00
2025-09-05 15:01:48 [DEBU] | AA.S000062..PRE misfit=6.469E+00
2025-09-05 15:01:48 [INFO] | PREPROCESSING AA.S000089..PRE
2025-09-05 15:01:48 [INFO] | PREPROCESSING AA.S000090..PRE
2025-09-05 15:01:48 [INFO] | PREPROCESSING AA.S000091..PRE
2025-09-05 15:01:48 [INFO] | PREPROCESSING AA.S000092..PRE
2025-09-05 15:01:48 [INFO] | PREPROCESSING AA.S000093..PRE
2025-09-05 15:01:48 [DEBU] | AA.S000089..PRE misfit=6.469E+00
2025-09-05 15:01:48 [DEBU] | AA.S000092..PRE misfit=6.469E+00
2025-09-05 15:01:48 [DEBU] | AA.S000090..PRE misfit=6.469E+00
2025-09-05 15:01:48 [INFO] | PREPROCESSING AA.S000096..PRE
2025-09-05 15:01:48 [DEBU] | AA.S000093..PRE misfit=6.469E+00
2025-09-05 15:01:48 [INFO] | PREPROCESSING AA.S000094..PRE
2025-09-05 15:01:48 [INFO] | PREPROCESSING AA.S000097..PRE
2025-09-05 15:01:48 [INFO] | PREPROCESSING AA.S000099..PRE
2025-09-05 15:01:48 [INFO] | PREPROCESSING AA.S000098..PRE
2025-09-05 15:01:48 [DEBU] | AA.S000091..PRE misfit=6.469E+00
2025-09-05 15:01:48 [INFO] | PREPROCESSING AA.S000101..PRE
2025-09-05 15:01:48 [INFO] | PREPROCESSING AA.S000100..PRE
2025-09-05 15:01:48 [INFO] | PREPROCESSING AA.S000095..PRE
2025-09-05 15:01:48 [INFO] | PREPROCESSING AA.S000102..PRE
2025-09-05 15:01:48 [INFO] | PREPROCESSING AA.S000104..PRE
2025-09-05 15:01:48 [INFO] | PREPROCESSING AA.S000103..PRE
2025-09-05 15:01:48 [INFO] | PREPROCESSING AA.S000105..PRE
2025-09-05 15:01:48 [DEBU] | AA.S000096..PRE misfit=6.469E+00
2025-09-05 15:01:48 [DEBU] | AA.S000099..PRE misfit=6.469E+00
2025-09-05 15:01:48 [DEBU] | AA.S000097..PRE misfit=6.469E+00
2025-09-05 15:01:48 [DEBU] | AA.S000098..PRE misfit=6.469E+00
2025-09-05 15:01:48 [DEBU] | AA.S000101..PRE misfit=6.469E+00
2025-09-05 15:01:48 [DEBU] | AA.S000094..PRE misfit=6.469E+00
2025-09-05 15:01:48 [DEBU] | AA.S000095..PRE misfit=6.469E+00
2025-09-05 15:01:48 [INFO] | PREPROCESSING AA.S000107..PRE
2025-09-05 15:01:48 [INFO] | PREPROCESSING AA.S000106..PRE
2025-09-05 15:01:48 [DEBU] | AA.S000100..PRE misfit=6.469E+00
2025-09-05 15:01:48 [DEBU] | AA.S000105..PRE misfit=6.469E+00
2025-09-05 15:01:48 [INFO] | PREPROCESSING AA.S000108..PRE
2025-09-05 15:01:48 [INFO] | PREPROCESSING AA.S000109..PRE
2025-09-05 15:01:48 [DEBU] | AA.S000103..PRE misfit=6.469E+00
2025-09-05 15:01:48 [DEBU] | AA.S000102..PRE misfit=6.469E+00
2025-09-05 15:01:48 [DEBU] | AA.S000104..PRE misfit=6.469E+00
2025-09-05 15:01:48 [INFO] | PREPROCESSING AA.S000110..PRE
2025-09-05 15:01:48 [DEBU] | AA.S000106..PRE misfit=6.469E+00
2025-09-05 15:01:48 [DEBU] | AA.S000108..PRE misfit=6.469E+00
2025-09-05 15:01:48 [DEBU] | AA.S000107..PRE misfit=6.469E+00
2025-09-05 15:01:48 [DEBU] | AA.S000109..PRE misfit=6.469E+00
2025-09-05 15:01:48 [DEBU] | AA.S000110..PRE misfit=6.469E+00
2025-09-05 15:01:48 [INFO] | PREPROCESSING AA.S000129..PRE
2025-09-05 15:01:48 [INFO] | PREPROCESSING AA.S000131..PRE
2025-09-05 15:01:48 [INFO] | PREPROCESSING AA.S000132..PRE
2025-09-05 15:01:48 [INFO] | PREPROCESSING AA.S000130..PRE
2025-09-05 15:01:48 [INFO] | PREPROCESSING AA.S000133..PRE
2025-09-05 15:01:49 [DEBU] | AA.S000129..PRE misfit=6.469E+00
2025-09-05 15:01:49 [INFO] | PREPROCESSING AA.S000134..PRE
2025-09-05 15:01:49 [INFO] | PREPROCESSING AA.S000136..PRE
2025-09-05 15:01:49 [DEBU] | AA.S000131..PRE misfit=6.469E+00
2025-09-05 15:01:49 [INFO] | PREPROCESSING AA.S000135..PRE
2025-09-05 15:01:49 [DEBU] | AA.S000132..PRE misfit=6.469E+00
2025-09-05 15:01:49 [INFO] | PREPROCESSING AA.S000137..PRE
2025-09-05 15:01:49 [INFO] | PREPROCESSING AA.S000138..PRE
2025-09-05 15:01:49 [INFO] | PREPROCESSING AA.S000139..PRE
2025-09-05 15:01:49 [INFO] | PREPROCESSING AA.S000141..PRE
2025-09-05 15:01:49 [INFO] | PREPROCESSING AA.S000140..PRE
2025-09-05 15:01:49 [DEBU] | AA.S000134..PRE misfit=6.469E+00
2025-09-05 15:01:49 [INFO] | PREPROCESSING AA.S000142..PRE
2025-09-05 15:01:49 [INFO] | PREPROCESSING AA.S000143..PRE
2025-09-05 15:01:49 [DEBU] | AA.S000130..PRE misfit=6.469E+00
2025-09-05 15:01:49 [INFO] | PREPROCESSING AA.S000145..PRE
2025-09-05 15:01:49 [INFO] | PREPROCESSING AA.S000144..PRE
2025-09-05 15:01:49 [DEBU] | AA.S000136..PRE misfit=6.469E+00
2025-09-05 15:01:49 [DEBU] | AA.S000135..PRE misfit=6.469E+00
2025-09-05 15:01:49 [DEBU] | AA.S000133..PRE misfit=6.469E+00
2025-09-05 15:01:49 [DEBU] | AA.S000139..PRE misfit=6.469E+00
2025-09-05 15:01:49 [DEBU] | AA.S000137..PRE misfit=6.469E+00
2025-09-05 15:01:49 [DEBU] | AA.S000138..PRE misfit=6.469E+00
2025-09-05 15:01:49 [DEBU] | AA.S000141..PRE misfit=6.469E+00
2025-09-05 15:01:49 [DEBU] | AA.S000140..PRE misfit=6.469E+00
2025-09-05 15:01:49 [DEBU] | AA.S000143..PRE misfit=6.469E+00
2025-09-05 15:01:49 [DEBU] | AA.S000142..PRE misfit=6.469E+00
2025-09-05 15:01:49 [DEBU] | AA.S000145..PRE misfit=6.469E+00
2025-09-05 15:01:49 [INFO] | PREPROCESSING AA.S000147..PRE
2025-09-05 15:01:49 [INFO] | PREPROCESSING AA.S000148..PRE
2025-09-05 15:01:49 [INFO] | PREPROCESSING AA.S000146..PRE
2025-09-05 15:01:49 [INFO] | PREPROCESSING AA.S000149..PRE
2025-09-05 15:01:49 [INFO] | PREPROCESSING AA.S000150..PRE
2025-09-05 15:01:49 [DEBU] | AA.S000144..PRE misfit=6.469E+00
2025-09-05 15:01:49 [INFO] | PREPROCESSING AA.S000151..PRE
2025-09-05 15:01:49 [DEBU] | AA.S000146..PRE misfit=6.469E+00
2025-09-05 15:01:49 [INFO] | PREPROCESSING AA.S000152..PRE
2025-09-05 15:01:49 [DEBU] | AA.S000148..PRE misfit=6.469E+00
2025-09-05 15:01:49 [INFO] | PREPROCESSING AA.S000153..PRE
2025-09-05 15:01:49 [DEBU] | AA.S000147..PRE misfit=6.469E+00
2025-09-05 15:01:49 [INFO] | PREPROCESSING AA.S000155..PRE
2025-09-05 15:01:49 [INFO] | PREPROCESSING AA.S000154..PRE
2025-09-05 15:01:49 [DEBU] | AA.S000149..PRE misfit=6.469E+00
2025-09-05 15:01:49 [INFO] | PREPROCESSING AA.S000156..PRE
2025-09-05 15:01:49 [INFO] | PREPROCESSING AA.S000060..PRE
2025-09-05 15:01:49 [DEBU] | AA.S000150..PRE misfit=6.469E+00
2025-09-05 15:01:49 [INFO] | PREPROCESSING AA.S000158..PRE
2025-09-05 15:01:49 [DEBU] | AA.S000151..PRE misfit=6.469E+00
2025-09-05 15:01:49 [INFO] | PREPROCESSING AA.S000157..PRE
2025-09-05 15:01:49 [INFO] | PREPROCESSING AA.S000161..PRE
2025-09-05 15:01:49 [INFO] | PREPROCESSING AA.S000159..PRE
2025-09-05 15:01:49 [INFO] | PREPROCESSING AA.S000160..PRE
2025-09-05 15:01:49 [DEBU] | AA.S000155..PRE misfit=6.469E+00
2025-09-05 15:01:49 [DEBU] | AA.S000152..PRE misfit=6.469E+00
2025-09-05 15:01:49 [INFO] | PREPROCESSING AA.S000162..PRE
2025-09-05 15:01:49 [INFO] | PREPROCESSING AA.S000164..PRE
2025-09-05 15:01:49 [DEBU] | AA.S000154..PRE misfit=6.469E+00
2025-09-05 15:01:49 [INFO] | PREPROCESSING AA.S000163..PRE
2025-09-05 15:01:49 [DEBU] | AA.S000158..PRE misfit=6.469E+00
2025-09-05 15:01:49 [DEBU] | AA.S000153..PRE misfit=6.469E+00
2025-09-05 15:01:49 [DEBU] | AA.S000156..PRE misfit=6.469E+00
2025-09-05 15:01:49 [DEBU] | AA.S000157..PRE misfit=6.469E+00
2025-09-05 15:01:49 [DEBU] | AA.S000060..PRE misfit=6.469E+00
2025-09-05 15:01:49 [DEBU] | AA.S000160..PRE misfit=6.469E+00
2025-09-05 15:01:49 [DEBU] | AA.S000161..PRE misfit=6.469E+00
2025-09-05 15:01:49 [DEBU] | AA.S000164..PRE misfit=6.469E+00
2025-09-05 15:01:49 [DEBU] | AA.S000163..PRE misfit=6.469E+00
2025-09-05 15:01:49 [DEBU] | AA.S000162..PRE misfit=6.469E+00
2025-09-05 15:01:49 [INFO] | PREPROCESSING AA.S000166..PRE
2025-09-05 15:01:49 [INFO] | PREPROCESSING AA.S000165..PRE
2025-09-05 15:01:49 [INFO] | PREPROCESSING AA.S000167..PRE
2025-09-05 15:01:49 [DEBU] | AA.S000159..PRE misfit=6.469E+00
2025-09-05 15:01:49 [INFO] | PREPROCESSING AA.S000172..PRE
2025-09-05 15:01:49 [INFO] | PREPROCESSING AA.S000171..PRE
2025-09-05 15:01:49 [INFO] | PREPROCESSING AA.S000169..PRE
2025-09-05 15:01:49 [INFO] | PREPROCESSING AA.S000168..PRE
2025-09-05 15:01:49 [INFO] | PREPROCESSING AA.S000173..PRE
2025-09-05 15:01:49 [DEBU] | AA.S000166..PRE misfit=6.469E+00
2025-09-05 15:01:49 [INFO] | PREPROCESSING AA.S000170..PRE
2025-09-05 15:01:49 [DEBU] | AA.S000167..PRE misfit=6.469E+00
2025-09-05 15:01:49 [DEBU] | AA.S000165..PRE misfit=6.469E+00
2025-09-05 15:01:49 [DEBU] | AA.S000171..PRE misfit=6.469E+00
2025-09-05 15:01:49 [DEBU] | AA.S000172..PRE misfit=6.469E+00
2025-09-05 15:01:49 [DEBU] | AA.S000169..PRE misfit=6.469E+00
2025-09-05 15:01:49 [DEBU] | AA.S000173..PRE misfit=6.469E+00
2025-09-05 15:01:49 [DEBU] | AA.S000170..PRE misfit=6.469E+00
2025-09-05 15:01:49 [INFO] | PREPROCESSING AA.S000174..PRE
2025-09-05 15:01:49 [INFO] | PREPROCESSING AA.S000175..PRE
2025-09-05 15:01:49 [INFO] | PREPROCESSING AA.S000176..PRE
2025-09-05 15:01:49 [DEBU] | AA.S000168..PRE misfit=6.469E+00
2025-09-05 15:01:49 [INFO] | PREPROCESSING AA.S000177..PRE
2025-09-05 15:01:49 [INFO] | PREPROCESSING AA.S000182..PRE
2025-09-05 15:01:49 [INFO] | PREPROCESSING AA.S000178..PRE
2025-09-05 15:01:49 [INFO] | PREPROCESSING AA.S000180..PRE
2025-09-05 15:01:49 [INFO] | PREPROCESSING AA.S000183..PRE
2025-09-05 15:01:49 [INFO] | PREPROCESSING AA.S000187..PRE
2025-09-05 15:01:49 [INFO] | PREPROCESSING AA.S000185..PRE
2025-09-05 15:01:49 [INFO] | PREPROCESSING AA.S000181..PRE
2025-09-05 15:01:49 [INFO] | PREPROCESSING AA.S000179..PRE
2025-09-05 15:01:49 [INFO] | PREPROCESSING AA.S000184..PRE
2025-09-05 15:01:49 [INFO] | PREPROCESSING AA.S000186..PRE
2025-09-05 15:01:49 [INFO] | PREPROCESSING AA.S000188..PRE
2025-09-05 15:01:49 [INFO] | PREPROCESSING AA.S000189..PRE
2025-09-05 15:01:49 [INFO] | PREPROCESSING AA.S000190..PRE
2025-09-05 15:01:49 [DEBU] | AA.S000175..PRE misfit=6.469E+00
2025-09-05 15:01:49 [DEBU] | AA.S000174..PRE misfit=6.469E+00
2025-09-05 15:01:49 [DEBU] | AA.S000176..PRE misfit=6.469E+00
2025-09-05 15:01:49 [DEBU] | AA.S000180..PRE misfit=6.469E+00
2025-09-05 15:01:49 [DEBU] | AA.S000182..PRE misfit=6.469E+00
2025-09-05 15:01:49 [DEBU] | AA.S000177..PRE misfit=6.469E+00
2025-09-05 15:01:49 [DEBU] | AA.S000183..PRE misfit=6.469E+00
2025-09-05 15:01:49 [DEBU] | AA.S000187..PRE misfit=6.469E+00
2025-09-05 15:01:49 [DEBU] | AA.S000185..PRE misfit=6.469E+00
2025-09-05 15:01:49 [DEBU] | AA.S000178..PRE misfit=6.469E+00
2025-09-05 15:01:49 [INFO] | PREPROCESSING AA.S000191..PRE
2025-09-05 15:01:49 [INFO] | PREPROCESSING AA.S000192..PRE
2025-09-05 15:01:49 [DEBU] | AA.S000184..PRE misfit=6.469E+00
2025-09-05 15:01:49 [INFO] | PREPROCESSING AA.S000193..PRE
2025-09-05 15:01:49 [INFO] | PREPROCESSING AA.S000195..PRE
2025-09-05 15:01:49 [DEBU] | AA.S000186..PRE misfit=6.469E+00
2025-09-05 15:01:49 [DEBU] | AA.S000179..PRE misfit=6.469E+00
2025-09-05 15:01:49 [INFO] | PREPROCESSING AA.S000194..PRE
2025-09-05 15:01:49 [DEBU] | AA.S000190..PRE misfit=6.469E+00
2025-09-05 15:01:49 [DEBU] | AA.S000181..PRE misfit=6.469E+00
2025-09-05 15:01:49 [DEBU] | AA.S000189..PRE misfit=6.469E+00
2025-09-05 15:01:49 [DEBU] | AA.S000188..PRE misfit=6.469E+00
2025-09-05 15:01:49 [INFO] | PREPROCESSING AA.S000196..PRE
2025-09-05 15:01:49 [INFO] | PREPROCESSING AA.S000198..PRE
2025-09-05 15:01:49 [INFO] | PREPROCESSING AA.S000197..PRE
2025-09-05 15:01:49 [DEBU] | AA.S000194..PRE misfit=6.469E+00
2025-09-05 15:01:49 [DEBU] | AA.S000192..PRE misfit=6.469E+00
2025-09-05 15:01:49 [DEBU] | AA.S000191..PRE misfit=6.469E+00
2025-09-05 15:01:49 [DEBU] | AA.S000195..PRE misfit=6.469E+00
2025-09-05 15:01:50 [DEBU] | AA.S000193..PRE misfit=6.469E+00
2025-09-05 15:01:50 [INFO] | PREPROCESSING AA.S000199..PRE
2025-09-05 15:01:50 [DEBU] | AA.S000196..PRE misfit=6.469E+00
2025-09-05 15:01:50 [INFO] | PREPROCESSING AA.S000200..PRE
2025-09-05 15:01:50 [INFO] | PREPROCESSING AA.S000201..PRE
2025-09-05 15:01:50 [DEBU] | AA.S000198..PRE misfit=6.469E+00
2025-09-05 15:01:50 [DEBU] | AA.S000197..PRE misfit=6.469E+00
2025-09-05 15:01:50 [DEBU] | AA.S000201..PRE misfit=6.469E+00
2025-09-05 15:01:50 [DEBU] | AA.S000200..PRE misfit=6.469E+00
2025-09-05 15:01:50 [DEBU] | AA.S000199..PRE misfit=6.469E+00
2025-09-05 15:02:22 [INFO] | PREPROCESSING AA.S000079..PRE
2025-09-05 15:02:26 [INFO] | PREPROCESSING AA.S000119..PRE
2025-09-05 15:03:12 [INFO] | PREPROCESSING AA.S000014..PRE
2025-09-05 15:03:12 [INFO] | PREPROCESSING AA.S000028..PRE
2025-09-05 15:03:12 [INFO] | PREPROCESSING AA.S000216..PRE
2025-09-05 15:03:12 [INFO] | PREPROCESSING AA.S000072..PRE
2025-09-05 15:03:12 [INFO] | PREPROCESSING AA.S000004..PRE
2025-09-05 15:03:12 [INFO] | PREPROCESSING AA.S000128..PRE
2025-09-05 15:03:12 [INFO] | PREPROCESSING AA.S000117..PRE
2025-09-05 15:03:12 [INFO] | PREPROCESSING AA.S000026..PRE
2025-09-05 15:03:12 [INFO] | PREPROCESSING AA.S000030..PRE
2025-09-05 15:03:12 [INFO] | PREPROCESSING AA.S000111..PRE
2025-09-05 15:03:12 [INFO] | PREPROCESSING AA.S000022..PRE
2025-09-05 15:03:12 [INFO] | PREPROCESSING AA.S000087..PRE
2025-09-05 15:03:12 [INFO] | PREPROCESSING AA.S000005..PRE
2025-09-05 15:03:12 [INFO] | PREPROCESSING AA.S000020..PRE
2025-09-05 15:03:13 [INFO] | PREPROCESSING AA.S000065..PRE
2025-09-05 15:03:13 [INFO] | PREPROCESSING AA.S000204..PRE
2025-09-05 15:03:13 [INFO] | PREPROCESSING AA.S000019..PRE
2025-09-05 15:03:13 [INFO] | PREPROCESSING AA.S000021..PRE
2025-09-05 15:03:13 [INFO] | PREPROCESSING AA.S000211..PRE
2025-09-05 15:03:13 [INFO] | PREPROCESSING AA.S000084..PRE
2025-09-05 15:03:46 [INFO] | PREPROCESSING AA.S000323..PRE
2025-09-05 15:03:13 [INFO] | PREPROCESSING AA.S000012..PRE
2025-09-05 15:03:14 [INFO] | PREPROCESSING AA.S000085..PRE
2025-09-05 15:03:14 [INFO] | PREPROCESSING AA.S000218..PRE
2025-09-05 15:03:14 [INFO] | PREPROCESSING AA.S000127..PRE
2025-09-05 15:03:14 [INFO] | PREPROCESSING AA.S000013..PRE
2025-09-05 15:03:15 [INFO] | PREPROCESSING AA.S000205..PRE
2025-09-05 15:03:15 [INFO] | PREPROCESSING AA.S000066..PRE
2025-09-05 15:03:15 [INFO] | PREPROCESSING AA.S000088..PRE
2025-09-05 15:03:15 [INFO] | PREPROCESSING AA.S000214..PRE
2025-09-05 15:03:15 [INFO] | PREPROCESSING AA.S000003..PRE
2025-09-05 15:03:15 [INFO] | PREPROCESSING AA.S000210..PRE
2025-09-05 15:03:46 [DEBU] | AA.S000014..PRE misfit=6.469E+00
2025-09-05 15:03:15 [INFO] | PREPROCESSING AA.S000031..PRE
2025-09-05 15:03:16 [INFO] | PREPROCESSING AA.S000016..PRE
2025-09-05 15:03:42 [INFO] | PREPROCESSING AA.S000009..PRE
2025-09-05 15:03:42 [INFO] | PREPROCESSING AA.S000007..PRE
2025-09-05 15:03:42 [INFO] | PREPROCESSING AA.S000124..PRE
2025-09-05 15:03:42 [INFO] | PREPROCESSING AA.S000217..PRE
2025-09-05 15:03:42 [INFO] | PREPROCESSING AA.S000212..PRE
2025-09-05 15:03:42 [INFO] | PREPROCESSING AA.S000208..PRE
2025-09-05 15:03:42 [INFO] | PREPROCESSING AA.S000029..PRE
2025-09-05 15:03:42 [INFO] | PREPROCESSING AA.S000076..PRE
2025-09-05 15:03:42 [INFO] | PREPROCESSING AA.S000209..PRE
2025-09-05 15:03:42 [INFO] | PREPROCESSING AA.S000056..PRE
2025-09-05 15:03:42 [INFO] | PREPROCESSING AA.S000213..PRE
2025-09-05 15:03:42 [INFO] | PREPROCESSING AA.S000125..PRE
2025-09-05 15:03:42 [INFO] | PREPROCESSING AA.S000215..PRE
2025-09-05 15:03:42 [INFO] | PREPROCESSING AA.S000050..PRE
2025-09-05 15:03:42 [INFO] | PREPROCESSING AA.S000048..PRE
2025-09-05 15:03:42 [INFO] | PREPROCESSING AA.S000075..PRE
2025-09-05 15:03:42 [INFO] | PREPROCESSING AA.S000071..PRE
2025-09-05 15:03:46 [DEBU] | AA.S000028..PRE misfit=6.469E+00
2025-09-05 15:03:43 [INFO] | PREPROCESSING AA.S000023..PRE
2025-09-05 15:03:46 [DEBU] | AA.S000117..PRE misfit=6.469E+00
2025-09-05 15:03:46 [DEBU] | AA.S000211..PRE misfit=6.469E+00
2025-09-05 15:03:46 [DEBU] | AA.S000323..PRE misfit=6.469E+00
2025-09-05 15:03:43 [INFO] | PREPROCESSING AA.S000207..PRE
2025-09-05 15:03:46 [DEBU] | AA.S000072..PRE misfit=6.469E+00
2025-09-05 15:03:43 [INFO] | PREPROCESSING AA.S000024..PRE
2025-09-05 15:03:46 [DEBU] | AA.S000205..PRE misfit=6.469E+00
2025-09-05 15:03:46 [DEBU] | AA.S000004..PRE misfit=6.469E+00
2025-09-05 15:03:43 [INFO] | PREPROCESSING AA.S000202..PRE
2025-09-05 15:03:46 [DEBU] | AA.S000013..PRE misfit=6.469E+00
2025-09-05 15:03:46 [DEBU] | AA.S000066..PRE misfit=6.469E+00
2025-09-05 15:03:43 [INFO] | PREPROCESSING AA.S000114..PRE
2025-09-05 15:03:43 [INFO] | PREPROCESSING AA.S000033..PRE
2025-09-05 15:03:43 [INFO] | PREPROCESSING AA.S000027..PRE
2025-09-05 15:03:46 [DEBU] | AA.S000084..PRE misfit=6.469E+00
2025-09-05 15:03:43 [INFO] | PREPROCESSING AA.S000274..PRE
2025-09-05 15:03:43 [INFO] | PREPROCESSING AA.S000203..PRE
2025-09-05 15:03:46 [DEBU] | AA.S000087..PRE misfit=6.469E+00
2025-09-05 15:03:43 [INFO] | PREPROCESSING AA.S000319..PRE
2025-09-05 15:03:46 [DEBU] | AA.S000079..PRE misfit=6.469E+00
2025-09-05 15:03:46 [DEBU] | AA.S000007..PRE misfit=6.469E+00
2025-09-05 15:03:46 [DEBU] | AA.S000009..PRE misfit=6.469E+00
2025-09-05 15:03:46 [DEBU] | AA.S000003..PRE misfit=6.469E+00
2025-09-05 15:03:46 [DEBU] | AA.S000119..PRE misfit=6.469E+00
2025-09-05 15:03:46 [DEBU] | AA.S000210..PRE misfit=6.469E+00
2025-09-05 15:03:43 [INFO] | PREPROCESSING AA.S000219..PRE
2025-09-05 15:03:46 [DEBU] | AA.S000019..PRE misfit=6.469E+00
2025-09-05 15:03:46 [DEBU] | AA.S000124..PRE misfit=6.469E+00
2025-09-05 15:03:46 [DEBU] | AA.S000214..PRE misfit=6.469E+00
2025-09-05 15:03:46 [DEBU] | AA.S000005..PRE misfit=6.469E+00
2025-09-05 15:03:46 [DEBU] | AA.S000204..PRE misfit=6.469E+00
2025-09-05 15:03:46 [DEBU] | AA.S000208..PRE misfit=6.469E+00
2025-09-05 15:03:46 [DEBU] | AA.S000022..PRE misfit=6.469E+00
2025-09-05 15:03:46 [DEBU] | AA.S000065..PRE misfit=6.469E+00
2025-09-05 15:03:46 [DEBU] | AA.S000217..PRE misfit=6.469E+00
2025-09-05 15:03:43 [INFO] | PREPROCESSING AA.S000364..PRE
2025-09-05 15:03:46 [INFO] | PREPROCESSING AA.S000082..PRE
2025-09-05 15:03:46 [DEBU] | AA.S000218..PRE misfit=6.469E+00
2025-09-05 15:03:43 [INFO] | PREPROCESSING AA.S000291..PRE
2025-09-05 15:03:46 [DEBU] | AA.S000016..PRE misfit=6.469E+00
2025-09-05 15:03:46 [DEBU] | AA.S000031..PRE misfit=6.469E+00
2025-09-05 15:03:44 [INFO] | PREPROCESSING AA.S000112..PRE
2025-09-05 15:03:46 [DEBU] | AA.S000056..PRE misfit=6.469E+00
2025-09-05 15:03:44 [INFO] | PREPROCESSING AA.S000032..PRE
2025-09-05 15:03:44 [INFO] | PREPROCESSING AA.S000206..PRE
2025-09-05 15:03:46 [DEBU] | AA.S000075..PRE misfit=6.469E+00
2025-09-05 15:03:44 [INFO] | PREPROCESSING AA.S000289..PRE
2025-09-05 15:03:44 [INFO] | PREPROCESSING AA.S000257..PRE
2025-09-05 15:03:44 [INFO] | PREPROCESSING AA.S000120..PRE
2025-09-05 15:03:45 [INFO] | PREPROCESSING AA.S000069..PRE
2025-09-05 15:03:45 [INFO] | PREPROCESSING AA.S000220..PRE
2025-09-05 15:03:45 [INFO] | PREPROCESSING AA.S000299..PRE
2025-09-05 15:03:46 [INFO] | PREPROCESSING AA.S000123..PRE
2025-09-05 15:03:46 [DEBU] | AA.S000085..PRE misfit=6.469E+00
2025-09-05 15:03:46 [DEBU] | AA.S000088..PRE misfit=6.469E+00
2025-09-05 15:03:46 [DEBU] | AA.S000024..PRE misfit=6.469E+00
2025-09-05 15:03:46 [DEBU] | AA.S000213..PRE misfit=6.469E+00
2025-09-05 15:03:46 [DEBU] | AA.S000021..PRE misfit=6.469E+00
2025-09-05 15:03:46 [DEBU] | AA.S000071..PRE misfit=6.469E+00
2025-09-05 15:03:46 [DEBU] | AA.S000111..PRE misfit=6.469E+00
2025-09-05 15:03:46 [DEBU] | AA.S000216..PRE misfit=6.469E+00
2025-09-05 15:03:46 [DEBU] | AA.S000076..PRE misfit=6.469E+00
2025-09-05 15:03:46 [DEBU] | AA.S000127..PRE misfit=6.469E+00
2025-09-05 15:03:46 [DEBU] | AA.S000026..PRE misfit=6.469E+00
2025-09-05 15:03:46 [DEBU] | AA.S000030..PRE misfit=6.469E+00
2025-09-05 15:03:46 [DEBU] | AA.S000209..PRE misfit=6.469E+00
2025-09-05 15:03:46 [DEBU] | AA.S000215..PRE misfit=6.469E+00
2025-09-05 15:03:46 [DEBU] | AA.S000289..PRE misfit=6.469E+00
2025-09-05 15:03:46 [DEBU] | AA.S000114..PRE misfit=6.469E+00
2025-09-05 15:03:46 [DEBU] | AA.S000050..PRE misfit=6.469E+00
2025-09-05 15:03:46 [DEBU] | AA.S000033..PRE misfit=6.469E+00
2025-09-05 15:03:46 [DEBU] | AA.S000125..PRE misfit=6.469E+00
2025-09-05 15:03:46 [DEBU] | AA.S000219..PRE misfit=6.469E+00
2025-09-05 15:03:46 [DEBU] | AA.S000120..PRE misfit=6.469E+00
2025-09-05 15:03:46 [DEBU] | AA.S000212..PRE misfit=6.469E+00
2025-09-05 15:04:18 [INFO] | PREPROCESSING AA.S000243..PRE
2025-09-05 15:03:46 [DEBU] | AA.S000020..PRE misfit=6.469E+00
2025-09-05 15:03:46 [DEBU] | AA.S000032..PRE misfit=6.469E+00
2025-09-05 15:03:46 [DEBU] | AA.S000128..PRE misfit=6.469E+00
2025-09-05 15:03:46 [DEBU] | AA.S000048..PRE misfit=6.469E+00
2025-09-05 15:04:18 [INFO] | PREPROCESSING AA.S000266..PRE
2025-09-05 15:03:46 [DEBU] | AA.S000202..PRE misfit=6.469E+00
2025-09-05 15:03:46 [DEBU] | AA.S000069..PRE misfit=6.469E+00
2025-09-05 15:03:46 [DEBU] | AA.S000012..PRE misfit=6.469E+00
2025-09-05 15:03:46 [DEBU] | AA.S000029..PRE misfit=6.469E+00
2025-09-05 15:03:46 [DEBU] | AA.S000291..PRE misfit=6.469E+00
2025-09-05 15:03:46 [DEBU] | AA.S000257..PRE misfit=6.469E+00
2025-09-05 15:04:18 [DEBU] | AA.S000243..PRE misfit=6.469E+00
2025-09-05 15:03:46 [DEBU] | AA.S000082..PRE misfit=6.469E+00
2025-09-05 15:03:46 [DEBU] | AA.S000206..PRE misfit=6.469E+00
2025-09-05 15:03:46 [DEBU] | AA.S000027..PRE misfit=6.469E+00
2025-09-05 15:03:46 [DEBU] | AA.S000023..PRE misfit=6.469E+00
2025-09-05 15:03:46 [DEBU] | AA.S000207..PRE misfit=6.469E+00
2025-09-05 15:03:46 [DEBU] | AA.S000203..PRE misfit=6.469E+00
2025-09-05 15:04:18 [DEBU] | AA.S000266..PRE misfit=6.469E+00
2025-09-05 15:03:46 [DEBU] | AA.S000112..PRE misfit=6.469E+00
2025-09-05 15:03:46 [DEBU] | AA.S000274..PRE misfit=6.469E+00
2025-09-05 15:03:46 [DEBU] | AA.S000123..PRE misfit=6.469E+00
2025-09-05 15:03:46 [DEBU] | AA.S000364..PRE misfit=6.469E+00
2025-09-05 15:03:46 [DEBU] | AA.S000299..PRE misfit=6.469E+00
2025-09-05 15:03:46 [DEBU] | AA.S000319..PRE misfit=6.469E+00
2025-09-05 15:03:46 [DEBU] | AA.S000220..PRE misfit=6.469E+00
2025-09-05 15:04:12 [INFO] | PREPROCESSING AA.S000367..PRE
2025-09-05 15:04:12 [INFO] | PREPROCESSING AA.S000034..PRE
2025-09-05 15:04:12 [INFO] | PREPROCESSING AA.S000121..PRE
2025-09-05 15:04:12 [INFO] | PREPROCESSING AA.S000252..PRE
2025-09-05 15:04:12 [INFO] | PREPROCESSING AA.S000310..PRE
2025-09-05 15:04:18 [INFO] | PREPROCESSING AA.S000306..PRE
2025-09-05 15:04:18 [INFO] | PREPROCESSING AA.S000287..PRE
2025-09-05 15:04:12 [INFO] | PREPROCESSING AA.S000224..PRE
2025-09-05 15:04:18 [INFO] | PREPROCESSING AA.S000286..PRE
2025-09-05 15:04:12 [INFO] | PREPROCESSING AA.S000292..PRE
2025-09-05 15:04:12 [INFO] | PREPROCESSING AA.S000370..PRE
2025-09-05 15:04:12 [INFO] | PREPROCESSING AA.S000006..PRE
2025-09-05 15:04:18 [DEBU] | AA.S000287..PRE misfit=6.469E+00
2025-09-05 15:04:12 [INFO] | PREPROCESSING AA.S000307..PRE
2025-09-05 15:04:12 [INFO] | PREPROCESSING AA.S000361..PRE
2025-09-05 15:04:12 [INFO] | PREPROCESSING AA.S000317..PRE
2025-09-05 15:04:12 [INFO] | PREPROCESSING AA.S000067..PRE
2025-09-05 15:04:12 [INFO] | PREPROCESSING AA.S000327..PRE
2025-09-05 15:04:12 [INFO] | PREPROCESSING AA.S000318..PRE
2025-09-05 15:04:12 [INFO] | PREPROCESSING AA.S000379..PRE
2025-09-05 15:04:18 [DEBU] | AA.S000306..PRE misfit=6.469E+00
2025-09-05 15:04:17 [INFO] | PREPROCESSING AA.S000226..PRE
2025-09-05 15:04:17 [INFO] | PREPROCESSING AA.S000295..PRE
2025-09-05 15:04:17 [INFO] | PREPROCESSING AA.S000353..PRE
2025-09-05 15:04:17 [INFO] | PREPROCESSING AA.S000068..PRE
2025-09-05 15:04:17 [INFO] | PREPROCESSING AA.S000081..PRE
2025-09-05 15:04:17 [INFO] | PREPROCESSING AA.S000302..PRE
2025-09-05 15:04:17 [INFO] | PREPROCESSING AA.S000073..PRE
2025-09-05 15:04:17 [INFO] | PREPROCESSING AA.S000348..PRE
2025-09-05 15:04:17 [INFO] | PREPROCESSING AA.S000253..PRE
2025-09-05 15:04:18 [DEBU] | AA.S000067..PRE misfit=6.469E+00
2025-09-05 15:04:18 [DEBU] | AA.S000286..PRE misfit=6.469E+00
2025-09-05 15:04:17 [INFO] | PREPROCESSING AA.S000086..PRE
2025-09-05 15:04:18 [DEBU] | AA.S000226..PRE misfit=6.469E+00
2025-09-05 15:04:18 [DEBU] | AA.S000081..PRE misfit=6.469E+00
2025-09-05 15:04:17 [INFO] | PREPROCESSING AA.S000229..PRE
2025-09-05 15:04:18 [DEBU] | AA.S000317..PRE misfit=6.469E+00
2025-09-05 15:04:17 [INFO] | PREPROCESSING AA.S000118..PRE
2025-09-05 15:04:18 [DEBU] | AA.S000327..PRE misfit=6.469E+00
2025-09-05 15:04:17 [INFO] | PREPROCESSING AA.S000126..PRE
2025-09-05 15:04:17 [INFO] | PREPROCESSING AA.S000074..PRE
2025-09-05 15:04:18 [DEBU] | AA.S000379..PRE misfit=6.469E+00
2025-09-05 15:04:17 [INFO] | PREPROCESSING AA.S000080..PRE
2025-09-05 15:04:18 [DEBU] | AA.S000068..PRE misfit=6.469E+00
2025-09-05 15:04:18 [DEBU] | AA.S000318..PRE misfit=6.469E+00
2025-09-05 15:04:17 [INFO] | PREPROCESSING AA.S000301..PRE
2025-09-05 15:04:17 [INFO] | PREPROCESSING AA.S000276..PRE
2025-09-05 15:04:18 [DEBU] | AA.S000073..PRE misfit=6.469E+00
2025-09-05 15:04:17 [INFO] | PREPROCESSING AA.S000277..PRE
2025-09-05 15:04:18 [DEBU] | AA.S000302..PRE misfit=6.469E+00
2025-09-05 15:04:18 [DEBU] | AA.S000361..PRE misfit=6.469E+00
2025-09-05 15:04:17 [INFO] | PREPROCESSING AA.S000381..PRE
2025-09-05 15:04:19 [DEBU] | AA.S000295..PRE misfit=6.469E+00
2025-09-05 15:04:17 [INFO] | PREPROCESSING AA.S000298..PRE
2025-09-05 15:04:17 [INFO] | PREPROCESSING AA.S000261..PRE
2025-09-05 15:04:17 [INFO] | PREPROCESSING AA.S000115..PRE
2025-09-05 15:04:19 [DEBU] | AA.S000307..PRE misfit=6.469E+00
2025-09-05 15:04:17 [INFO] | PREPROCESSING AA.S000328..PRE
2025-09-05 15:04:17 [INFO] | PREPROCESSING AA.S000259..PRE
2025-09-05 15:04:19 [DEBU] | AA.S000080..PRE misfit=6.469E+00
2025-09-05 15:04:19 [DEBU] | AA.S000074..PRE misfit=6.469E+00
2025-09-05 15:04:19 [DEBU] | AA.S000310..PRE misfit=6.469E+00
2025-09-05 15:04:17 [INFO] | PREPROCESSING AA.S000270..PRE
2025-09-05 15:04:19 [DEBU] | AA.S000034..PRE misfit=6.469E+00
2025-09-05 15:04:19 [DEBU] | AA.S000353..PRE misfit=6.469E+00
2025-09-05 15:04:17 [INFO] | PREPROCESSING AA.S000354..PRE
2025-09-05 15:04:17 [INFO] | PREPROCESSING AA.S000078..PRE
2025-09-05 15:04:19 [DEBU] | AA.S000121..PRE misfit=6.469E+00
2025-09-05 15:04:19 [DEBU] | AA.S000118..PRE misfit=6.469E+00
2025-09-05 15:04:19 [DEBU] | AA.S000252..PRE misfit=6.469E+00
2025-09-05 15:04:17 [INFO] | PREPROCESSING AA.S000391..PRE
2025-09-05 15:04:19 [DEBU] | AA.S000391..PRE misfit=6.469E+00
2025-09-05 15:04:17 [INFO] | PREPROCESSING AA.S000245..PRE
2025-09-05 15:04:17 [INFO] | PREPROCESSING AA.S000350..PRE
2025-09-05 15:04:19 [DEBU] | AA.S000253..PRE misfit=6.469E+00
2025-09-05 15:04:17 [INFO] | PREPROCESSING AA.S000011..PRE
2025-09-05 15:04:19 [INFO] | PREPROCESSING AA.S000351..PRE
2025-09-05 15:04:19 [INFO] | PREPROCESSING AA.S000225..PRE
2025-09-05 15:04:19 [DEBU] | AA.S000328..PRE misfit=6.469E+00
2025-09-05 15:04:19 [DEBU] | AA.S000115..PRE misfit=6.469E+00
2025-09-05 15:04:17 [INFO] | PREPROCESSING AA.S000329..PRE
2025-09-05 15:04:19 [DEBU] | AA.S000277..PRE misfit=6.469E+00
2025-09-05 15:04:19 [DEBU] | AA.S000370..PRE misfit=6.469E+00
2025-09-05 15:04:19 [DEBU] | AA.S000367..PRE misfit=6.469E+00
2025-09-05 15:04:17 [INFO] | PREPROCESSING AA.S000017..PRE
2025-09-05 15:04:19 [DEBU] | AA.S000354..PRE misfit=6.469E+00
2025-09-05 15:04:19 [DEBU] | AA.S000351..PRE misfit=6.469E+00
2025-09-05 15:04:17 [INFO] | PREPROCESSING AA.S000249..PRE
2025-09-05 15:04:19 [DEBU] | AA.S000225..PRE misfit=6.469E+00
2025-09-05 15:04:19 [DEBU] | AA.S000381..PRE misfit=6.469E+00
2025-09-05 15:04:19 [DEBU] | AA.S000270..PRE misfit=6.469E+00
2025-09-05 15:04:19 [DEBU] | AA.S000078..PRE misfit=6.469E+00
2025-09-05 15:04:17 [INFO] | PREPROCESSING AA.S000113..PRE
2025-09-05 15:04:17 [INFO] | PREPROCESSING AA.S000234..PRE
2025-09-05 15:04:19 [DEBU] | AA.S000276..PRE misfit=6.469E+00
2025-09-05 15:04:19 [DEBU] | AA.S000261..PRE misfit=6.469E+00
2025-09-05 15:04:17 [INFO] | PREPROCESSING AA.S000285..PRE
2025-09-05 15:04:17 [INFO] | PREPROCESSING AA.S000293..PRE
2025-09-05 15:04:17 [INFO] | PREPROCESSING AA.S000375..PRE
2025-09-05 15:04:17 [INFO] | PREPROCESSING AA.S000360..PRE
2025-09-05 15:04:19 [DEBU] | AA.S000301..PRE misfit=6.469E+00
2025-09-05 15:04:17 [INFO] | PREPROCESSING AA.S000122..PRE
2025-09-05 15:04:17 [INFO] | PREPROCESSING AA.S000421..PRE
2025-09-05 15:04:17 [INFO] | PREPROCESSING AA.S000240..PRE
2025-09-05 15:04:17 [INFO] | PREPROCESSING AA.S000309..PRE
2025-09-05 15:04:17 [INFO] | PREPROCESSING AA.S000015..PRE
2025-09-05 15:04:17 [INFO] | PREPROCESSING AA.S000251..PRE
2025-09-05 15:04:19 [DEBU] | AA.S000421..PRE misfit=6.469E+00
2025-09-05 15:04:19 [DEBU] | AA.S000293..PRE misfit=6.469E+00
2025-09-05 15:04:17 [INFO] | PREPROCESSING AA.S000336..PRE
2025-09-05 15:04:19 [DEBU] | AA.S000360..PRE misfit=6.469E+00
2025-09-05 15:04:17 [INFO] | PREPROCESSING AA.S000313..PRE
2025-09-05 15:04:17 [INFO] | PREPROCESSING AA.S000300..PRE
2025-09-05 15:04:17 [INFO] | PREPROCESSING AA.S000316..PRE
2025-09-05 15:04:17 [INFO] | PREPROCESSING AA.S000263..PRE
2025-09-05 15:04:17 [INFO] | PREPROCESSING AA.S000239..PRE
2025-09-05 15:04:19 [DEBU] | AA.S000122..PRE misfit=6.469E+00
2025-09-05 15:04:17 [INFO] | PREPROCESSING AA.S000321..PRE
2025-09-05 15:04:19 [DEBU] | AA.S000348..PRE misfit=6.469E+00
2025-09-05 15:04:19 [DEBU] | AA.S000234..PRE misfit=6.469E+00
2025-09-05 15:04:17 [INFO] | PREPROCESSING AA.S000077..PRE
2025-09-05 15:04:17 [INFO] | PREPROCESSING AA.S000297..PRE
2025-09-05 15:04:19 [DEBU] | AA.S000375..PRE misfit=6.469E+00
2025-09-05 15:04:17 [INFO] | PREPROCESSING AA.S000244..PRE
2025-09-05 15:04:19 [DEBU] | AA.S000309..PRE misfit=6.469E+00
2025-09-05 15:04:19 [DEBU] | AA.S000015..PRE misfit=6.469E+00
2025-09-05 15:04:19 [DEBU] | AA.S000006..PRE misfit=6.469E+00
2025-09-05 15:04:17 [INFO] | PREPROCESSING AA.S000396..PRE
2025-09-05 15:04:19 [DEBU] | AA.S000396..PRE misfit=6.469E+00
2025-09-05 15:04:17 [INFO] | PREPROCESSING AA.S000363..PRE
2025-09-05 15:04:19 [DEBU] | AA.S000300..PRE misfit=6.469E+00
2025-09-05 15:04:17 [INFO] | PREPROCESSING AA.S000322..PRE
2025-09-05 15:04:19 [DEBU] | AA.S000336..PRE misfit=6.469E+00
2025-09-05 15:04:17 [INFO] | PREPROCESSING AA.S000346..PRE
2025-09-05 15:04:19 [DEBU] | AA.S000229..PRE misfit=6.469E+00
2025-09-05 15:04:17 [INFO] | PREPROCESSING AA.S000070..PRE
2025-09-05 15:04:17 [INFO] | PREPROCESSING AA.S000345..PRE
2025-09-05 15:04:17 [INFO] | PREPROCESSING AA.S000256..PRE
2025-09-05 15:04:19 [DEBU] | AA.S000244..PRE misfit=6.469E+00
2025-09-05 15:04:17 [INFO] | PREPROCESSING AA.S000296..PRE
2025-09-05 15:04:19 [DEBU] | AA.S000086..PRE misfit=6.469E+00
2025-09-05 15:04:17 [INFO] | PREPROCESSING AA.S000025..PRE
2025-09-05 15:04:19 [DEBU] | AA.S000011..PRE misfit=6.469E+00
2025-09-05 15:04:19 [DEBU] | AA.S000297..PRE misfit=6.469E+00
2025-09-05 15:04:17 [INFO] | PREPROCESSING AA.S000268..PRE
2025-09-05 15:04:17 [INFO] | PREPROCESSING AA.S000280..PRE
2025-09-05 15:04:17 [INFO] | PREPROCESSING AA.S000377..PRE
2025-09-05 15:04:17 [INFO] | PREPROCESSING AA.S000303..PRE
2025-09-05 15:04:19 [DEBU] | AA.S000313..PRE misfit=6.469E+00
2025-09-05 15:04:17 [INFO] | PREPROCESSING AA.S000246..PRE
2025-09-05 15:04:17 [INFO] | PREPROCESSING AA.S000262..PRE
2025-09-05 15:04:17 [INFO] | PREPROCESSING AA.S000376..PRE
2025-09-05 15:04:20 [DEBU] | AA.S000321..PRE misfit=6.469E+00
2025-09-05 15:04:17 [INFO] | PREPROCESSING AA.S000116..PRE
2025-09-05 15:04:20 [DEBU] | AA.S000263..PRE misfit=6.469E+00
2025-09-05 15:04:20 [DEBU] | AA.S000239..PRE misfit=6.469E+00
2025-09-05 15:04:17 [INFO] | PREPROCESSING AA.S000335..PRE
2025-09-05 15:04:17 [INFO] | PREPROCESSING AA.S000290..PRE
2025-09-05 15:04:17 [INFO] | PREPROCESSING AA.S000083..PRE
2025-09-05 15:04:17 [INFO] | PREPROCESSING AA.S000304..PRE
2025-09-05 15:04:17 [INFO] | PREPROCESSING AA.S000378..PRE
2025-09-05 15:04:20 [INFO] | PREPROCESSING AA.S000325..PRE
2025-09-05 15:04:17 [INFO] | PREPROCESSING AA.S000272..PRE
2025-09-05 15:04:20 [INFO] | PREPROCESSING AA.S000393..PRE
2025-09-05 15:04:17 [INFO] | PREPROCESSING AA.S000397..PRE
2025-09-05 15:04:20 [DEBU] | AA.S000397..PRE misfit=6.469E+00
2025-09-05 15:04:17 [INFO] | PREPROCESSING AA.S000372..PRE
2025-09-05 15:04:17 [INFO] | PREPROCESSING AA.S000384..PRE
2025-09-05 15:04:17 [INFO] | PREPROCESSING AA.S000235..PRE
2025-09-05 15:04:17 [INFO] | PREPROCESSING AA.S000238..PRE
2025-09-05 15:04:17 [INFO] | PREPROCESSING AA.S000010..PRE
2025-09-05 15:04:20 [DEBU] | AA.S000393..PRE misfit=6.469E+00
2025-09-05 15:04:20 [DEBU] | AA.S000296..PRE misfit=6.469E+00
2025-09-05 15:04:17 [INFO] | PREPROCESSING AA.S000294..PRE
2025-09-05 15:04:18 [INFO] | PREPROCESSING AA.S000339..PRE
2025-09-05 15:04:18 [INFO] | PREPROCESSING AA.S000334..PRE
2025-09-05 15:04:20 [DEBU] | AA.S000345..PRE misfit=6.469E+00
2025-09-05 15:04:18 [INFO] | PREPROCESSING AA.S000260..PRE
2025-09-05 15:04:18 [INFO] | PREPROCESSING AA.S000420..PRE
2025-09-05 15:04:20 [DEBU] | AA.S000268..PRE misfit=6.469E+00
2025-09-05 15:04:20 [DEBU] | AA.S000420..PRE misfit=6.469E+00
2025-09-05 15:04:20 [DEBU] | AA.S000256..PRE misfit=6.469E+00
2025-09-05 15:04:18 [INFO] | PREPROCESSING AA.S000308..PRE
2025-09-05 15:04:20 [DEBU] | AA.S000325..PRE misfit=6.469E+00
2025-09-05 15:04:19 [DEBU] | AA.S000224..PRE misfit=6.469E+00
2025-09-05 15:04:20 [DEBU] | AA.S000377..PRE misfit=6.469E+00
2025-09-05 15:04:20 [DEBU] | AA.S000280..PRE misfit=6.469E+00
2025-09-05 15:04:20 [DEBU] | AA.S000304..PRE misfit=6.469E+00
2025-09-05 15:04:20 [DEBU] | AA.S000010..PRE misfit=6.469E+00
2025-09-05 15:04:19 [INFO] | PREPROCESSING AA.S000241..PRE
2025-09-05 15:04:20 [DEBU] | AA.S000077..PRE misfit=6.469E+00
2025-09-05 15:04:20 [DEBU] | AA.S000272..PRE misfit=6.469E+00
2025-09-05 15:04:20 [DEBU] | AA.S000251..PRE misfit=6.469E+00
2025-09-05 15:04:19 [DEBU] | AA.S000126..PRE misfit=6.469E+00
2025-09-05 15:04:20 [DEBU] | AA.S000334..PRE misfit=6.469E+00
2025-09-05 15:04:19 [DEBU] | AA.S000292..PRE misfit=6.469E+00
2025-09-05 15:04:20 [DEBU] | AA.S000238..PRE misfit=6.469E+00
2025-09-05 15:04:20 [DEBU] | AA.S000372..PRE misfit=6.469E+00
2025-09-05 15:04:20 [DEBU] | AA.S000116..PRE misfit=6.469E+00
2025-09-05 15:04:20 [DEBU] | AA.S000378..PRE misfit=6.469E+00
2025-09-05 15:04:20 [DEBU] | AA.S000303..PRE misfit=6.469E+00
2025-09-05 15:04:20 [DEBU] | AA.S000384..PRE misfit=6.469E+00
2025-09-05 15:04:20 [DEBU] | AA.S000335..PRE misfit=6.469E+00
2025-09-05 15:04:20 [INFO] | PREPROCESSING AA.S000365..PRE
2025-09-05 15:04:20 [DEBU] | AA.S000363..PRE misfit=6.469E+00
2025-09-05 15:04:20 [DEBU] | AA.S000262..PRE misfit=6.469E+00
2025-09-05 15:04:20 [DEBU] | AA.S000376..PRE misfit=6.469E+00
2025-09-05 15:04:20 [DEBU] | AA.S000365..PRE misfit=6.469E+00
2025-09-05 15:04:20 [DEBU] | AA.S000246..PRE misfit=6.469E+00
2025-09-05 15:04:20 [INFO] | PREPROCESSING AA.S000373..PRE
2025-09-05 15:04:20 [DEBU] | AA.S000025..PRE misfit=6.469E+00
2025-09-05 15:04:20 [DEBU] | AA.S000308..PRE misfit=6.469E+00
2025-09-05 15:04:20 [DEBU] | AA.S000241..PRE misfit=6.469E+00
2025-09-05 15:04:20 [DEBU] | AA.S000235..PRE misfit=6.469E+00
2025-09-05 15:04:20 [DEBU] | AA.S000339..PRE misfit=6.469E+00
2025-09-05 15:04:20 [DEBU] | AA.S000245..PRE misfit=6.469E+00
2025-09-05 15:04:20 [DEBU] | AA.S000083..PRE misfit=6.469E+00
2025-09-05 15:04:20 [DEBU] | AA.S000260..PRE misfit=6.469E+00
2025-09-05 15:04:20 [DEBU] | AA.S000259..PRE misfit=6.469E+00
2025-09-05 15:04:20 [DEBU] | AA.S000294..PRE misfit=6.469E+00
2025-09-05 15:04:20 [DEBU] | AA.S000290..PRE misfit=6.469E+00
2025-09-05 15:04:20 [DEBU] | AA.S000322..PRE misfit=6.469E+00
2025-09-05 15:04:21 [DEBU] | AA.S000316..PRE misfit=6.469E+00
2025-09-05 15:04:21 [INFO] | PREPROCESSING AA.S000356..PRE
2025-09-05 15:04:21 [DEBU] | AA.S000350..PRE misfit=6.469E+00
2025-09-05 15:04:21 [DEBU] | AA.S000017..PRE misfit=6.469E+00
2025-09-05 15:04:21 [INFO] | PREPROCESSING AA.S000305..PRE
2025-09-05 15:04:21 [INFO] | PREPROCESSING AA.S000279..PRE
2025-09-05 15:04:21 [DEBU] | AA.S000305..PRE misfit=6.469E+00
2025-09-05 15:04:21 [DEBU] | AA.S000240..PRE misfit=6.469E+00
2025-09-05 15:04:21 [DEBU] | AA.S000373..PRE misfit=6.469E+00
2025-09-05 15:04:21 [INFO] | PREPROCESSING AA.S000326..PRE
2025-09-05 15:04:21 [DEBU] | AA.S000329..PRE misfit=6.469E+00
2025-09-05 15:04:21 [DEBU] | AA.S000298..PRE misfit=6.469E+00
2025-09-05 15:04:21 [DEBU] | AA.S000326..PRE misfit=6.469E+00
2025-09-05 15:04:21 [DEBU] | AA.S000279..PRE misfit=6.469E+00
2025-09-05 15:04:21 [DEBU] | AA.S000249..PRE misfit=6.469E+00
2025-09-05 15:04:21 [DEBU] | AA.S000285..PRE misfit=6.469E+00
2025-09-05 15:04:21 [INFO] | PREPROCESSING AA.S000333..PRE
2025-09-05 15:04:21 [DEBU] | AA.S000346..PRE misfit=6.469E+00
2025-09-05 15:04:21 [DEBU] | AA.S000333..PRE misfit=6.469E+00
2025-09-05 15:04:22 [DEBU] | AA.S000113..PRE misfit=6.469E+00
2025-09-05 15:04:22 [DEBU] | AA.S000356..PRE misfit=6.469E+00
2025-09-05 15:04:22 [INFO] | PREPROCESSING AA.S000349..PRE
2025-09-05 15:04:22 [INFO] | PREPROCESSING AA.S000414..PRE
2025-09-05 15:04:22 [DEBU] | AA.S000414..PRE misfit=6.469E+00
2025-09-05 15:04:22 [INFO] | PREPROCESSING AA.S000267..PRE
2025-09-05 15:04:22 [INFO] | PREPROCESSING AA.S000371..PRE
2025-09-05 15:04:22 [INFO] | PREPROCESSING AA.S000254..PRE
2025-09-05 15:04:22 [INFO] | PREPROCESSING AA.S000314..PRE
2025-09-05 15:04:22 [DEBU] | AA.S000267..PRE misfit=6.469E+00
2025-09-05 15:04:22 [DEBU] | AA.S000254..PRE misfit=6.469E+00
2025-09-05 15:04:23 [DEBU] | AA.S000070..PRE misfit=6.469E+00
2025-09-05 15:04:23 [DEBU] | AA.S000349..PRE misfit=6.469E+00
2025-09-05 15:04:23 [INFO] | PREPROCESSING AA.S000389..PRE
2025-09-05 15:04:24 [DEBU] | AA.S000389..PRE misfit=6.469E+00
2025-09-05 15:04:24 [INFO] | PREPROCESSING AA.S000418..PRE
2025-09-05 15:04:24 [DEBU] | AA.S000418..PRE misfit=6.469E+00
2025-09-05 15:04:24 [INFO] | PREPROCESSING AA.S000401..PRE
2025-09-05 15:04:24 [DEBU] | AA.S000401..PRE misfit=6.469E+00
2025-09-05 15:04:24 [INFO] | PREPROCESSING AA.S000278..PRE
2025-09-05 15:04:24 [INFO] | PREPROCESSING AA.S000352..PRE
2025-09-05 15:04:24 [INFO] | PREPROCESSING AA.S000411..PRE
2025-09-05 15:04:24 [DEBU] | AA.S000411..PRE misfit=6.469E+00
2025-09-05 15:04:24 [DEBU] | AA.S000352..PRE misfit=6.469E+00
2025-09-05 15:04:24 [DEBU] | AA.S000371..PRE misfit=6.469E+00
2025-09-05 15:04:25 [DEBU] | AA.S000314..PRE misfit=6.469E+00
2025-09-05 15:04:25 [INFO] | PREPROCESSING AA.S000265..PRE
2025-09-05 15:04:25 [INFO] | PREPROCESSING AA.S000258..PRE
2025-09-05 15:04:26 [DEBU] | AA.S000258..PRE misfit=6.469E+00
2025-09-05 15:04:26 [INFO] | PREPROCESSING AA.S000368..PRE
2025-09-05 15:04:26 [DEBU] | AA.S000265..PRE misfit=6.469E+00
2025-09-05 15:04:26 [DEBU] | AA.S000278..PRE misfit=6.469E+00
2025-09-05 15:04:26 [DEBU] | AA.S000368..PRE misfit=6.469E+00
2025-09-05 15:04:26 [INFO] | PREPROCESSING AA.S000341..PRE
2025-09-05 15:04:26 [DEBU] | AA.S000341..PRE misfit=6.469E+00
2025-09-05 15:04:26 [INFO] | PREPROCESSING AA.S000358..PRE
2025-09-05 15:04:26 [INFO] | PREPROCESSING AA.S000236..PRE
2025-09-05 15:04:27 [INFO] | PREPROCESSING AA.S000409..PRE
2025-09-05 15:04:27 [DEBU] | AA.S000409..PRE misfit=6.469E+00
2025-09-05 15:04:27 [DEBU] | AA.S000236..PRE misfit=6.469E+00
2025-09-05 15:04:27 [DEBU] | AA.S000358..PRE misfit=6.469E+00
2025-09-05 15:04:27 [INFO] | PREPROCESSING AA.S000338..PRE
2025-09-05 15:04:27 [INFO] | PREPROCESSING AA.S000343..PRE
2025-09-05 15:04:27 [DEBU] | AA.S000338..PRE misfit=6.469E+00
2025-09-05 15:04:27 [DEBU] | AA.S000343..PRE misfit=6.469E+00
2025-09-05 15:04:28 [INFO] | PREPROCESSING AA.S000359..PRE
2025-09-05 15:04:28 [INFO] | PREPROCESSING AA.S000233..PRE
2025-09-05 15:04:28 [INFO] | PREPROCESSING AA.S000275..PRE
2025-09-05 15:04:28 [DEBU] | AA.S000359..PRE misfit=6.469E+00
2025-09-05 15:04:28 [DEBU] | AA.S000233..PRE misfit=6.469E+00
2025-09-05 15:04:28 [INFO] | PREPROCESSING AA.S000405..PRE
2025-09-05 15:04:28 [DEBU] | AA.S000405..PRE misfit=6.469E+00
2025-09-05 15:04:28 [DEBU] | AA.S000275..PRE misfit=6.469E+00
2025-09-05 15:04:28 [INFO] | PREPROCESSING AA.S000415..PRE
2025-09-05 15:04:28 [INFO] | PREPROCESSING AA.S000412..PRE
2025-09-05 15:04:28 [DEBU] | AA.S000412..PRE misfit=6.469E+00
2025-09-05 15:04:28 [INFO] | PREPROCESSING AA.S000357..PRE
2025-09-05 15:04:28 [DEBU] | AA.S000415..PRE misfit=6.469E+00
2025-09-05 15:04:28 [INFO] | PREPROCESSING AA.S000406..PRE
2025-09-05 15:04:28 [DEBU] | AA.S000406..PRE misfit=6.469E+00
2025-09-05 15:04:28 [INFO] | PREPROCESSING AA.S000247..PRE
2025-09-05 15:04:29 [DEBU] | AA.S000357..PRE misfit=6.469E+00
2025-09-05 15:04:29 [DEBU] | AA.S000247..PRE misfit=6.469E+00
2025-09-05 15:04:29 [INFO] | PREPROCESSING AA.S000231..PRE
2025-09-05 15:04:29 [INFO] | PREPROCESSING AA.S000383..PRE
2025-09-05 15:04:29 [INFO] | PREPROCESSING AA.S000403..PRE
2025-09-05 15:04:29 [DEBU] | AA.S000403..PRE misfit=6.469E+00
2025-09-05 15:04:29 [DEBU] | AA.S000231..PRE misfit=6.469E+00
2025-09-05 15:04:29 [DEBU] | AA.S000383..PRE misfit=6.469E+00
2025-09-05 15:04:30 [INFO] | PREPROCESSING AA.S000222..PRE
2025-09-05 15:04:30 [INFO] | PREPROCESSING AA.S000374..PRE
2025-09-05 15:04:30 [INFO] | PREPROCESSING AA.S000366..PRE
2025-09-05 15:04:30 [INFO] | PREPROCESSING AA.S000380..PRE
2025-09-05 15:04:30 [DEBU] | AA.S000380..PRE misfit=6.469E+00
2025-09-05 15:04:30 [DEBU] | AA.S000222..PRE misfit=6.469E+00
2025-09-05 15:04:30 [INFO] | PREPROCESSING AA.S000269..PRE
2025-09-05 15:04:30 [DEBU] | AA.S000366..PRE misfit=6.469E+00
2025-09-05 15:04:30 [DEBU] | AA.S000374..PRE misfit=6.469E+00
2025-09-05 15:04:30 [INFO] | PREPROCESSING AA.S000221..PRE
2025-09-05 15:04:30 [DEBU] | AA.S000269..PRE misfit=6.469E+00
2025-09-05 15:04:31 [INFO] | PREPROCESSING AA.S000271..PRE
2025-09-05 15:04:31 [DEBU] | AA.S000221..PRE misfit=6.469E+00
2025-09-05 15:04:31 [INFO] | PREPROCESSING AA.S000386..PRE
2025-09-05 15:04:31 [DEBU] | AA.S000386..PRE misfit=6.469E+00
2025-09-05 15:04:31 [INFO] | PREPROCESSING AA.S000255..PRE
2025-09-05 15:04:32 [DEBU] | AA.S000255..PRE misfit=6.469E+00
2025-09-05 15:04:32 [INFO] | PREPROCESSING AA.S000342..PRE
2025-09-05 15:04:32 [INFO] | PREPROCESSING AA.S000330..PRE
2025-09-05 15:04:32 [DEBU] | AA.S000271..PRE misfit=6.469E+00
2025-09-05 15:04:32 [DEBU] | AA.S000342..PRE misfit=6.469E+00
2025-09-05 15:04:33 [INFO] | PREPROCESSING AA.S000404..PRE
2025-09-05 15:04:33 [DEBU] | AA.S000404..PRE misfit=6.469E+00
2025-09-05 15:04:33 [INFO] | PREPROCESSING AA.S000230..PRE
2025-09-05 15:04:33 [INFO] | PREPROCESSING AA.S000402..PRE
2025-09-05 15:04:33 [DEBU] | AA.S000330..PRE misfit=6.469E+00
2025-09-05 15:04:33 [DEBU] | AA.S000402..PRE misfit=6.469E+00
2025-09-05 15:04:33 [DEBU] | AA.S000230..PRE misfit=6.469E+00
2025-09-05 15:04:33 [INFO] | PREPROCESSING AA.S000228..PRE
2025-09-05 15:04:33 [DEBU] | AA.S000228..PRE misfit=6.469E+00
2025-09-05 15:04:33 [INFO] | PREPROCESSING AA.S000324..PRE
2025-09-05 15:04:33 [INFO] | PREPROCESSING AA.S000410..PRE
2025-09-05 15:04:33 [DEBU] | AA.S000410..PRE misfit=6.469E+00
2025-09-05 15:04:34 [INFO] | PREPROCESSING AA.S000399..PRE
2025-09-05 15:04:34 [DEBU] | AA.S000399..PRE misfit=6.469E+00
2025-09-05 15:04:34 [INFO] | PREPROCESSING AA.S000385..PRE
2025-09-05 15:04:34 [DEBU] | AA.S000385..PRE misfit=6.469E+00
2025-09-05 15:04:34 [DEBU] | AA.S000324..PRE misfit=6.469E+00
2025-09-05 15:04:34 [INFO] | PREPROCESSING AA.S000390..PRE
2025-09-05 15:04:34 [DEBU] | AA.S000390..PRE misfit=6.469E+00
2025-09-05 15:04:34 [INFO] | PREPROCESSING AA.S000340..PRE
2025-09-05 15:04:34 [INFO] | PREPROCESSING AA.S000232..PRE
2025-09-05 15:04:35 [DEBU] | AA.S000340..PRE misfit=6.469E+00
2025-09-05 15:04:35 [INFO] | PREPROCESSING AA.S000422..PRE
2025-09-05 15:04:35 [DEBU] | AA.S000422..PRE misfit=6.469E+00
2025-09-05 15:04:36 [INFO] | PREPROCESSING AA.S000250..PRE
2025-09-05 15:04:36 [INFO] | PREPROCESSING AA.S000223..PRE
2025-09-05 15:04:36 [DEBU] | AA.S000250..PRE misfit=6.469E+00
2025-09-05 15:04:36 [INFO] | PREPROCESSING AA.S000315..PRE
2025-09-05 15:04:36 [DEBU] | AA.S000232..PRE misfit=6.469E+00
2025-09-05 15:04:36 [INFO] | PREPROCESSING AA.S000394..PRE
2025-09-05 15:04:36 [DEBU] | AA.S000394..PRE misfit=6.469E+00
2025-09-05 15:04:36 [INFO] | PREPROCESSING AA.S000264..PRE
2025-09-05 15:04:36 [DEBU] | AA.S000264..PRE misfit=6.469E+00
2025-09-05 15:04:36 [INFO] | PREPROCESSING AA.S000344..PRE
2025-09-05 15:04:36 [INFO] | PREPROCESSING AA.S000242..PRE
2025-09-05 15:04:37 [DEBU] | AA.S000315..PRE misfit=6.469E+00
2025-09-05 15:04:36 [INFO] | PREPROCESSING AA.S000248..PRE
2025-09-05 15:04:37 [DEBU] | AA.S000344..PRE misfit=6.469E+00
2025-09-05 15:04:37 [DEBU] | AA.S000242..PRE misfit=6.469E+00
2025-09-05 15:04:37 [DEBU] | AA.S000248..PRE misfit=6.469E+00
2025-09-05 15:04:37 [INFO] | PREPROCESSING AA.S000369..PRE
2025-09-05 15:04:37 [INFO] | PREPROCESSING AA.S000312..PRE
2025-09-05 15:04:37 [INFO] | PREPROCESSING AA.S000355..PRE
2025-09-05 15:04:38 [INFO] | PREPROCESSING AA.S000400..PRE
2025-09-05 15:04:38 [DEBU] | AA.S000223..PRE misfit=6.469E+00
2025-09-05 15:04:38 [DEBU] | AA.S000355..PRE misfit=6.469E+00
2025-09-05 15:04:38 [DEBU] | AA.S000400..PRE misfit=6.469E+00
2025-09-05 15:04:38 [INFO] | PREPROCESSING AA.S000227..PRE
2025-09-05 15:04:38 [INFO] | PREPROCESSING AA.S000332..PRE
2025-09-05 15:04:38 [INFO] | PREPROCESSING AA.S000387..PRE
2025-09-05 15:04:38 [DEBU] | AA.S000387..PRE misfit=6.469E+00
2025-09-05 15:04:38 [INFO] | PREPROCESSING AA.S000347..PRE
2025-09-05 15:04:38 [INFO] | PREPROCESSING AA.S000288..PRE
2025-09-05 15:04:38 [DEBU] | AA.S000227..PRE misfit=6.469E+00
2025-09-05 15:04:38 [DEBU] | AA.S000347..PRE misfit=6.469E+00
2025-09-05 15:04:38 [INFO] | PREPROCESSING AA.S000311..PRE
2025-09-05 15:04:38 [DEBU] | AA.S000288..PRE misfit=6.469E+00
2025-09-05 15:04:38 [DEBU] | AA.S000332..PRE misfit=6.469E+00
2025-09-05 15:04:39 [INFO] | PREPROCESSING AA.S000417..PRE
2025-09-05 15:04:39 [DEBU] | AA.S000417..PRE misfit=6.469E+00
2025-09-05 15:04:39 [DEBU] | AA.S000369..PRE misfit=6.469E+00
2025-09-05 15:04:39 [INFO] | PREPROCESSING AA.S000282..PRE
2025-09-05 15:04:39 [INFO] | PREPROCESSING AA.S000416..PRE
2025-09-05 15:04:39 [DEBU] | AA.S000416..PRE misfit=6.469E+00
2025-09-05 15:04:39 [INFO] | PREPROCESSING AA.S000407..PRE
2025-09-05 15:04:39 [INFO] | PREPROCESSING AA.S000413..PRE
2025-09-05 15:04:39 [DEBU] | AA.S000407..PRE misfit=6.469E+00
2025-09-05 15:04:39 [DEBU] | AA.S000413..PRE misfit=6.469E+00
2025-09-05 15:04:39 [INFO] | PREPROCESSING AA.S000283..PRE
2025-09-05 15:04:39 [INFO] | PREPROCESSING AA.S000320..PRE
2025-09-05 15:04:39 [INFO] | PREPROCESSING AA.S000398..PRE
2025-09-05 15:04:39 [DEBU] | AA.S000398..PRE misfit=6.469E+00
2025-09-05 15:04:39 [INFO] | PREPROCESSING AA.S000392..PRE
2025-09-05 15:04:40 [DEBU] | AA.S000392..PRE misfit=6.469E+00
2025-09-05 15:04:39 [DEBU] | AA.S000312..PRE misfit=6.469E+00
2025-09-05 15:04:39 [INFO] | PREPROCESSING AA.S000419..PRE
2025-09-05 15:04:40 [DEBU] | AA.S000419..PRE misfit=6.469E+00
2025-09-05 15:04:39 [INFO] | PREPROCESSING AA.S000331..PRE
2025-09-05 15:04:39 [DEBU] | AA.S000320..PRE misfit=6.469E+00
2025-09-05 15:04:40 [INFO] | PREPROCESSING AA.S000237..PRE
2025-09-05 15:04:40 [DEBU] | AA.S000311..PRE misfit=6.469E+00
2025-09-05 15:04:40 [INFO] | PREPROCESSING AA.S000337..PRE
2025-09-05 15:04:40 [INFO] | PREPROCESSING AA.S000395..PRE
2025-09-05 15:04:40 [DEBU] | AA.S000395..PRE misfit=6.469E+00
2025-09-05 15:04:40 [DEBU] | AA.S000237..PRE misfit=6.469E+00
2025-09-05 15:04:41 [INFO] | PREPROCESSING AA.S000388..PRE
2025-09-05 15:04:41 [DEBU] | AA.S000388..PRE misfit=6.469E+00
2025-09-05 15:04:41 [INFO] | PREPROCESSING AA.S000284..PRE
2025-09-05 15:04:41 [INFO] | PREPROCESSING AA.S000273..PRE
2025-09-05 15:04:41 [INFO] | PREPROCESSING AA.S000408..PRE
2025-09-05 15:04:41 [DEBU] | AA.S000273..PRE misfit=6.469E+00
2025-09-05 15:04:41 [DEBU] | AA.S000337..PRE misfit=6.469E+00
2025-09-05 15:04:41 [DEBU] | AA.S000284..PRE misfit=6.469E+00
2025-09-05 15:04:41 [DEBU] | AA.S000408..PRE misfit=6.469E+00
2025-09-05 15:04:41 [INFO] | PREPROCESSING AA.S000362..PRE
2025-09-05 15:04:41 [DEBU] | AA.S000283..PRE misfit=6.469E+00
2025-09-05 15:04:41 [DEBU] | AA.S000362..PRE misfit=6.469E+00
2025-09-05 15:04:41 [DEBU] | AA.S000331..PRE misfit=6.469E+00
2025-09-05 15:04:42 [DEBU] | AA.S000282..PRE misfit=6.469E+00
2025-09-05 15:04:49 [INFO] | PREPROCESSING AA.S000382..PRE
2025-09-05 15:04:51 [INFO] | PREPROCESSING AA.S000281..PRE
2025-09-05 15:05:20 [DEBU] | AA.S000382..PRE misfit=6.469E+00
2025-09-05 15:05:20 [DEBU] | AA.S000281..PRE misfit=6.469E+00
